<?xml version="1.0" encoding="UTF-8"?>

<!-- generated on 2025-05-04 09:09:32.881654 by randomTrips.py 9a83456
<configuration>
    <net-file value="D:\TrAD-Quito\sumo\input\simon_bolivar.net.xml"/>
    <output-trip-file value="D:\TrAD-Quito\sumo\input\simon_bolivar_auto.rou.xml"/>
    <validate value="True"/>
    <period value="1.5"/>
</configuration>
-->

<!-- generated on 2025-05-04 09:09:30 by Eclipse SUMO duarouter Version 1.18.0
<configuration xmlns:xsi="http://www.w3.org/2001/XMLSchema-instance" xsi:noNamespaceSchemaLocation="http://sumo.dlr.de/xsd/duarouterConfiguration.xsd">

    <input>
        <net-file value="D:\TrAD-Quito\sumo\input\simon_bolivar.net.xml"/>
        <route-files value="D:\TrAD-Quito\sumo\input\simon_bolivar_auto.rou.xml"/>
    </input>

    <output>
        <output-file value="routes.rou.xml"/>
        <alternatives-output value="NUL"/>
    </output>

    <time>
        <begin value="0.0"/>
        <end value="3600.0"/>
    </time>

    <report>
        <no-warnings value="true"/>
        <ignore-errors value="true"/>
        <no-step-log value="true"/>
    </report>

</configuration>
-->

<routes xmlns:xsi="http://www.w3.org/2001/XMLSchema-instance" xsi:noNamespaceSchemaLocation="http://sumo.dlr.de/xsd/routes_file.xsd">
    <vehicle id="0" depart="0.00">
        <route edges="24791339#1 -24791339#1 -24791339#0 -1168279796 -24791335#6 -24791335#5 -24791335#4 -24791335#3 -24791335#2 -24791335#1 -24791335#0 424685850#1 535566666#1 98246932 535554959#0 -854227939 -854227942 -507058716 -25046412#6 199881960#0 1175651171 -1175651171"/>
    </vehicle>
    <vehicle id="1" depart="1.50">
        <route edges="-25054585#0 -25054584#1 -25054584#0 432770524 432807560 432777381#0 432777381#1 432777381#2 229472854 432770522 431981404#0 431981404#1 -25043183#1 -25043183#0 -421121876#1 -421121876#0 24159814#2 25042889#1 25042889#2 25042889#3 1168287297#0 1168287297#1 1168287297#2 1168287297#3 1168287297#4 24405492#0 24405492#1 25046417#0 25046418#0 -25046418#0"/>
    </vehicle>
    <vehicle id="2" depart="3.00">
        <route edges="25054142#2 1094268116 999609877 1094268115#0 457320396#6 652088615#0 652088615#1 652088615#1-AddedOffRampEdge 652044149 25054595#2 25054595#3 25054595#4 25054595#5 25054595#6 25054595#7 199568036#0 199568036#1 25042919#0 -25042916#1 -25042916#0 -25042915#3 -25042908#1 25042914#2 25042914#3"/>
    </vehicle>
    <vehicle id="3" depart="4.50">
        <route edges="432768291#0 432768291#1 432768291#2 432768291#3 432768291#4 432768291#5 432768291#6 432768292#1 432768292#2 432768292#3 432768292#4 432768292#5 432768292#6 -25043180#1 -25043180#0 -421121863#1 -421121863#0 -421121876#0 24159814#2 -24405506#9 -24405506#8 -24405506#7 -24405506#6 -24405506#5 -24405506#4 25046387 -999609883#1 -999609883#0 25046412#5 199881960#0 1175651171 507058717#0 507058717#1 25042889#11 98246921 1168283956 535922410-AddedOnRampEdge 535922410 24160011 535922409 431981408#0 431981408#1 431981408#2 238875364#0 238875364#1 238875364#2 24683519#0 24683519#1 -431827302#1 -431827302#0 -24683531 24683527#0 24683527#1 24683527#2 -24683550#2 -24683550#1 -24683550#0"/>
    </vehicle>
    <vehicle id="4" depart="6.00">
        <route edges="-660590671 -854227943#0 854227941 -276636146#6 -276636146#5 534900635#0 534900635#1 -24683515#2 -24683515#1 -874437282 24683513 422425537#0 422425537#1 422425537#2 80477039#1 431775779 431827300#0 24683535#3 24683536 420905084 637275759 1205693234#0 1205693234#1 -1205693234#1"/>
    </vehicle>
    <vehicle id="5" depart="7.50">
        <route edges="-25044574#0 25035451#4 376541646 376541644 97293743#0 97293743#1 35631491#0 35631491#1 35631490 -25043183#1 -25043183#0 -421121876#1 -421121876#0 24159814#2 -24405506#9 -24405506#8 -24405506#7 -24405506#6 -24405506#5 -24405506#4 -24405506#3 -24405506#2 -24405506#1 -24405506#0 24405507#0 24405507#1 24405507#2 24405507#3 24405512#0 24405512#1 24405514#0 24405514#1 24405514#2 422730660#1 535572607 83002986 535574528 893289558 462693003 238875365"/>
    </vehicle>
    <vehicle id="7" depart="10.50">
        <route edges="25035451#1 25035451#2 25035451#3 25035451#4 376541646 376541644 97293743#0 97293743#1 35631491#0 35631491#1 35631490 -25043183#1 -25043183#0 -421121876#1 -421121876#0 24159814#2 -24405506#9 -24405506#8 -24405506#7 -24405506#6 -24405506#5 -24405506#4 25046387 -999609883#1 -999609883#0 25046412#5 199881960#0 1175651171 507058717#0 507058717#1 25042889#11 98246921 1168283956 535922410-AddedOnRampEdge 535922410 24160011 535922409 431981408#0 431981408#1 431981408#2 238875364#0 238875364#1 238875364#2 24683519#0 24683519#1 -431827302#1 -431827302#0 -24683531 -431827307#1 -431827307#0 431827306#0 431827306#1 24683524#0"/>
    </vehicle>
    <vehicle id="8" depart="12.00">
        <route edges="-25044576#1 -25044576#0 -25044574#1 -25044574#0 25035451#4 -25044568 -1168524081 -25043787 -432234379#1 -432234379#0 24699029#0 24699029#1 24699029#2 24699029#3 24699030#0 24699030#1 24699030#2"/>
    </vehicle>
    <vehicle id="9" depart="13.50">
        <route edges="314066417 895708421 431989326 1168273992 1168273992-AddedOffRampEdge 1163917761 422730660#0-AddedOnRampEdge 422730660#0 -24405514#2 -1080119679"/>
    </vehicle>
    <vehicle id="10" depart="15.00">
        <route edges="302965727#8 302965727#9 302965727#10 302965727#11 302965727#12 302965727#13 302965727#14 637275760 -24791339#2 -24791339#1 -24791339#0 -1168279796 -24791335#6 -24791335#5 -24791335#4 -24791335#3 -24791335#2 -24791335#1 -24791335#0 424685850#1 535566666#1 98246932 535554959#0 535554959#1 98246944#1 98246944#2 98246944#3 98246944#4 98246944#5 98246944#6 98246944#7 98246944#8 98246944#9 98246944#10 98246944#11 98246944#12 98246944#13 98246944#13-AddedOffRampEdge 98246944#14 98246944#15 98246944#16 98246944#17 98246944#18 98246944#19 98246944#19-AddedOffRampEdge 535549123#0 535549123#1 535549123#2 65423591#1 25042887#0 25042887#1 25042887#2 -25044577 -25035452#3 -25035452#2 -25044578 25044578"/>
    </vehicle>
    <vehicle id="11" depart="16.50">
        <route edges="-372239266#1 -372239266#0 25046407#2 24405512#1 24405514#0 24405514#1 24405514#2 422730660#1 535572607 83002986 535574528 893289558 462693003 238875365 1168109380 535922409 431981408#0 431981408#1 431981408#2 238875364#0 238875364#1 238875364#2 24683519#0 24683519#1 431994306 431775779 431827300#0 24683535#3 24683536 948224714 -948224715 -948224713 -24791336#1 -24791336#0 24791335#6 -302965728#5 -302965728#4 -302965728#3 -302965728#2 24791345#0 24791345#1 24791345#2 24791345#3 -24791345#3"/>
    </vehicle>
    <vehicle id="13" depart="19.50">
        <route edges="-24683535#4 -24683535#3 -431827300#0 -431775778 -80477039#1 -80477039#0 -422425537#1 -422425537#0 24683514#0 24683514#1 431827297#0 431827297#1 431827297#2 431827297#3 314066417 895708421 431989326 24160009 535922410-AddedOnRampEdge 535922410 431981407 535910625#0 -24683612#2 -24683612#1 -24683612#0"/>
    </vehicle>
    <vehicle id="14" depart="21.00">
        <route edges="420901186#1 24701928#1 -421547968#1 -421547968#0 -24701926#2 -24701924#2 -24701924#1 -24701924#0 24699553#4 24699553#5 24699553#6"/>
    </vehicle>
    <vehicle id="15" depart="22.50">
        <route edges="302965728#2 302965728#3 302965728#4 302965728#5 -24791335#6 -24791335#5 -24791335#4 -24791335#3 -24791335#2 -24791335#1 -24791335#0 424685850#1 535566666#1 98246932 535554959#0 -854227939 -854227942 -507058716 -25046412#6 -25046412#5 999609883#0 999609883#1 -25046387 24405506#4 25043046#1 25043046#2 25046811#0 25046811#1 25046811#2"/>
    </vehicle>
    <vehicle id="16" depart="24.00">
        <route edges="24405507#3 24405507#4 -24405504#1 -24405504#0 -1168801372 25046409 -854227943#0 854227941 -276636146#6 -276636146#5 534900635#0 534900635#1 24683515#3 24683515#4 -24683560#8 -24683560#7 894591163#0"/>
    </vehicle>
    <vehicle id="17" depart="25.50">
        <route edges="-431981401 -1168361906 -538972998#0 -97293752#1 -97293752#0 -538972997#0 -25043183#1 -25043183#0 -421121876#1 -421121876#0 24159814#2 -24405506#9 -24405506#8 -24405506#7 -24405506#6 -24405506#5 -24405506#4 25046387 -999609883#1 -999609883#0 25046412#5 199881960#0 1175651171 507058717#0 507058717#1 25042889#11 98246921 1168283956 535922410-AddedOnRampEdge 535922410 24160011 535922409 431981408#0 431981408#1 431981408#2 238875364#0 238875364#1 238875364#2 24683519#0 24683519#1 431994306 431775779 431827300#0 24683535#3"/>
    </vehicle>
    <vehicle id="18" depart="27.00">
        <route edges="372239261#1 -372239261#1 -372239261#0 199881958 24405506#3 25046387 -999609883#1 -999609883#0 25046412#5 25046412#6 25046412#7 854227941 854227939 535554959#1 98246944#1 98246944#2 98246944#3 98246944#4 98246944#5 98246944#6 98246944#7 98246944#8 98246944#9 98246944#10 98246944#11 -432248097#1 -432248097#0 -626957566 -24735618#2 -24735618#1 -24735618#0 -626957569#1 24735611#0 24735611#1"/>
    </vehicle>
    <vehicle id="19" depart="28.50">
        <route edges="429529116 432770522 431981404#0 431981404#1 -35631490 -431981406 -35631491#0 -97293743#1 -24735617#1 -24735617#0 -432762971 -432248099#6 -24735616#3 -24735616#2 24699018#2 24699022#1"/>
    </vehicle>
    <vehicle id="20" depart="30.00">
        <route edges="25044937 421121955 1100897258 432768292#4 432768292#5 432768292#6 -25043180#1 -25043180#0 -421121863#1 -421121863#0 -421121876#0 24159814#2 25042889#1 25042889#2 25042889#3 25042889#4 25042889#5 -107938350#6 -107938350#5 -107938350#4 -107938350#3 24405490#1 24405490#2 -24405490#2"/>
    </vehicle>
    <vehicle id="21" depart="31.50">
        <route edges="-25044933#0 25044930#1 -25043182#0 -421121863#1 -421121863#0 -421121876#0 24159814#2 -24405506#9 -24405506#8 -24405506#7 -24405506#6 -24405506#5 -24405506#4 25046387 -999609883#1 -999609883#0 25046412#5 25046412#6 25046412#7 854227941 -276636146#6 -276636146#5 -276636146#4 -276636146#3 -276636146#2 -276636146#1 -276636146#0 293255910#0 293255910#1 293255909#0 293255909#1 -293255909#1"/>
    </vehicle>
    <vehicle id="22" depart="33.00">
        <route edges="-24405521#1 -24405521#0 24683611#1 1168126740 -854227946#3 25054139 -25054138#2 -25054138#1"/>
    </vehicle>
    <vehicle id="23" depart="34.50">
        <route edges="-24683549#2 -24683549#1 24683550#0 24683550#1 24683550#2 -24683527#2 -24683527#1 -24683527#0 24683531 431827302#0 431827302#1 431994306 -80477039#1 -80477039#0 -422425537#1 -422425537#0 24683514#0 24683514#1 431827297#0 431827297#1 431827297#2 431827297#3 314066417 24160012#0 24160012#1 98246952 535554959#0 -854227939 -276636146#6 -276636146#5 -276636146#4 -276636146#3 -276636146#2"/>
    </vehicle>
    <vehicle id="24" depart="36.00">
        <route edges="24791335#4 -24791335#4 -24791335#3 -24791335#2 -24791335#1 -24791335#0 424685850#1 535566666#1 98246932 535554959#0 535554959#1 98246944#1 98246944#2 98246944#3 98246944#4 98246944#5 98246944#6 98246944#7 98246944#8 98246944#9 98246944#10 98246944#11 98246944#12 98246944#13 98246944#13-AddedOffRampEdge 98246944#14 98246944#15 98246944#16 98246944#17 429690523 429690524#0 429690524#1 432248099#0 -432248099#0"/>
    </vehicle>
    <vehicle id="25" depart="37.50">
        <route edges="-431827299#1 -431827299#0 -431775778 -80477039#1 -80477039#0 -422425537#1 -422425537#0 24683514#0 24683514#1 431827297#0 431827297#1 431827297#2 431827297#3 199885792 428326182 314066418-AddedOnRampEdge 314066418 535572607 535572605#0 535572605#1 535566694#0 25054595#0 25054595#1 25054595#2 25054595#3 25054595#4 25054595#5 25054595#6 25054595#7 25054602#1 25054602#2 25054587#0 25054587#1 25054587#2 432770524 432807560 432777381#0 432777381#1 432777381#2 229472854 -429529116 -25045242#0"/>
    </vehicle>
    <vehicle id="26" depart="39.00">
        <route edges="-25054221#0 -25054219#0 -24405516#1 -24405516#0 -25054228#1 -25054228#0 -25054216#0 -24405514#0 24405513 -24405507#5 -24405507#4 -24405507#3 -24405507#2 -24405507#1 -24405507#0 -1168305905#2 -1168305905#1 25046412#1 25046412#2 25046412#3 25046412#4 25046412#5 199881960#0 1175651171 507058717#0 507058717#1 25042889#11 98246921 1168283956 535922410-AddedOnRampEdge 535922410"/>
    </vehicle>
    <vehicle id="28" depart="42.00">
        <route edges="-24791341 -24791339#1 -24791339#0 -1168279796 -24791335#6 -24791335#5 -24791335#4 -24791335#3 -24791335#2 -24791335#1 -24791335#0 424685850#1 535566666#1 98246932 535554959#0 -854227939 -854227942 -507058716 -25046412#6 -25046412#5 999609883#0 999609883#1 -25046387 24405506#4 25043046#1 25043046#2 25046811#0 25046811#1"/>
    </vehicle>
    <vehicle id="29" depart="43.50">
        <route edges="-24783924#9 -24783924#8 -24783924#7 -24783924#6 -24783924#5 -24783924#4 -24783924#3 -24783924#2 -27347564#1 -27347564#0 -854227948 457320396#0 457320396#1 457320396#2 457320396#3 457320396#4 457320396#5 457320396#6 652088615#0 652088615#1 652088615#1-AddedOffRampEdge 652044149 25054595#2 25054595#3 25054595#4 -220666028#2 -220666028#1 432770529#1 -432770529#1"/>
    </vehicle>
    <vehicle id="30" depart="45.00">
        <route edges="98246944#11 -432248097#1 -432248097#0 24699023 -432248096 -1168287299#1 -1168287299#0 -432248094 -276638494#1 -276638494#0 292747017#0 292747017#1 1168799438#0 1168799438#1 276638492#0 276638492#1 276638492#2 276636146#0 276636146#1 276636146#2 276636146#3 276636146#4 534900635#0 534900635#1 -24683515#2 -24683515#1 -874437282 24683513 422425537#0 422425537#1 422425537#2 80477039#1 431775779 431827300#0 24683535#3 24683536 948224714 -948224715 -948224713 -24791336#1 -24791336#0 24791335#6 -302965728#5 -302965728#4 -302965728#3 24791344#0 24791344#1"/>
    </vehicle>
    <vehicle id="31" depart="46.50">
        <route edges="24683527#4 -24683527#4 -24683527#3 -24683527#2 -24683527#1 -24683527#0 24683531 431827302#0 431827302#1 431994306 -80477039#1 -80477039#0 -422425537#1 -422425537#0 24683514#0 24683514#1 431827297#0 431827297#1 431827297#2 431827297#3 199885792 428326182 314066418-AddedOnRampEdge 314066418 535572607 535572605#0 535572605#1 535566694#0 25054595#0 25054595#1 25054595#2 25054595#3 25054595#4 25054595#5 25054595#6 25054595#7 199568036#0 199568036#1 25042919#0 25042919#1 25042919#2 432777386#0 25042922#2"/>
    </vehicle>
    <vehicle id="33" depart="49.50">
        <route edges="-25044934#1 -25044934#0 25044934#0 25044934#1 25044934#2 25044934#3 -25042891#0 -421121876#1 -421121876#0 24159814#2 -24405506#9 -24405506#8 -24405506#7 -24405506#6 -24405506#5 -24405506#4 25046387 -999609883#1 -999609883#0 25046412#5 25046412#6 25046412#7 854227941 -276636146#6 -276636146#5 -276636146#4 -1219475773"/>
    </vehicle>
    <vehicle id="34" depart="51.00">
        <route edges="-293256826#0 -24405490#2 -24405490#1 -107938350#2 -107938350#1 -107938350#0 25042889#9 25042889#9-AddedOffRampEdge 199881969#0 199881969#1 -1175651171 -199881960#0 -25046412#5 999609883#0 999609883#1 -25046387 24405506#4 24405506#5 24405506#6 24405506#7 24405506#8 -376543466#2 -376543466#1 -376543466#0 -98231048#2 -98231048#1 -98231048#0 -897097401#1 -897097401#0 -897097402#1 -897097402#0 -25042905#2 -25042905#1 -25042905#0 35631490 -431981404#1 -431981404#0 -432770522 -229472854 -429529117#0 -229472855#1 -229472855#0 -25045239#3 -25045239#2 -25045239#1 432770521#1 432770521#2 -25054871#1"/>
    </vehicle>
    <vehicle id="35" depart="52.50">
        <route edges="-25043042 -24405506#7 -24405506#6 -24405506#5 -24405506#4 25046387 -999609883#1 -999609883#0 25046412#5 199881960#0 1175651171 507058717#0 507058717#1 25042889#11 98246921 1168283956 535922410-AddedOnRampEdge 535922410 24160011 535922409 431981408#0 431981408#1 431981408#2 238875364#0 238875364#1 238875364#2 24683519#0 24683519#1 431994306 431775779 431827300#0 24683535#3 24683536 420905084 637275759"/>
    </vehicle>
    <vehicle id="36" depart="54.00">
        <route edges="431827306#3 -431827306#3 -431827306#2 -431827306#1 -431827306#0 431827307#0 431827307#1 24683531 431827302#0 431827302#1 431994306 -80477039#1 -80477039#0 -422425537#1 -422425537#0 24683514#0 24683514#1 431827297#0 431827297#1 431827297#2 431827297#3 314066417 24160012#0 24160012#1 98246952 535554959#0 535554959#1 98246944#1 98246944#2 98246944#3 98246944#4 98246944#5 98246944#6 98246944#7 98246944#8 98246944#9 -24405494#1 -24405494#0 -292747017#1 -292747017#0 -24699030#2 -24699030#1 -24699030#0 -24699029#3 -24699029#2 -24699029#1 -24699029#0 24735615 432234379#1 25043787 -337312509#0"/>
    </vehicle>
    <vehicle id="37" depart="55.50">
        <route edges="25042885 432770524 432807560 432777381#0 432777381#1 432777381#2 229472854 432770522 431981404#0 431981404#1 -35631490 -431981406 -35631491#0 -97293743#1 -24735617#1 -24735617#0 -432248098 -626957569#1"/>
    </vehicle>
    <vehicle id="38" depart="57.00">
        <route edges="432807559#2 -25054585#3 25054587#1 25054587#2 432770524 432807560 432777381#0 432777381#1 432777381#2 229472854 432770522 431981404#0 431981404#1 -25043183#1 -25043183#0 -421121876#1 -421121876#0 24159814#2 25042889#1 25042889#2 25042889#3 1168287297#0 1168287297#1"/>
    </vehicle>
    <vehicle id="39" depart="58.50">
        <route edges="-25054218 432777386#6 -25054219#1 -25054219#0 -24405516#1 -24405516#0 -25054228#1"/>
    </vehicle>
    <vehicle id="40" depart="60.00">
        <route edges="24683535#4 -24683534#1 -431827299#0 -431775778 -80477039#1 -80477039#0 -422425537#1 -422425537#0 24683514#0 24683514#1 431827297#0 431827297#1 431827297#2 431827297#3 199885792 428326182 314066418-AddedOnRampEdge 314066418 535572607 535572605#0 535572605#1 535566694#0 25054595#0 25054595#1 25054595#2 25054595#3 25054595#4 -220666028#2 432775732#1 432775731#0 25054596#0 25054596#1 25054596#2 25054596#3 -25054596#3"/>
    </vehicle>
    <vehicle id="41" depart="61.50">
        <route edges="24699023 24735606 1168798713 626957569#1 432248098 24735617#0 24735617#1 97293743#1 35631491#0 35631491#1 35631490 -431981404#1 -431981404#0 -432770522 -229472854 -432777381#2 -432777381#1 -432777381#0 -432807560 -432770524 25054584#0 25054584#1 376545741#0 376545741#1 432770526#0 432770526#1"/>
    </vehicle>
    <vehicle id="42" depart="63.00">
        <route edges="-432770529#1 -432770529#0 -107938364 25054590#1 25054590#2 25054595#7 199568036#0 199568036#1 25042919#0 25042919#1 25042919#2 432777386#0 432777386#1 432777386#2 432777386#3 432777386#4 432777386#5 432777386#6 -25054219#1 -25054219#0 -24405516#1 -24405516#0 -25054228#1 -25054228#0 -25054216#0 -24405514#0 24405513 -24405507#5 -24405507#4 24405512#0 -25046407#2 -25046407#1"/>
    </vehicle>
    <vehicle id="43" depart="64.50">
        <route edges="999609878 25054138#1 25054138#2 -25054139 854227946#3 854227946#4 -24405502#3 -24405502#2 -24405502#1 -24405502#0 893289558 462693003 238875365 1168109380 535922409 431981408#0 431981408#1 431981408#2 238875364#0 238875364#1 238875364#2 24683519#0 24683519#1 431994306 -80477039#1 -80477039#0 -422425537#1 -422425537#0 24683514#0 24683514#1 431827297#0 431827297#1 431827297#2 431827297#3 314066417 24160012#0"/>
    </vehicle>
    <vehicle id="44" depart="66.00">
        <route edges="-24683534#1 -431827299#0 -431775778 -80477039#1 -80477039#0 -422425537#1 -422425537#0 24683514#0 24683514#1 431827297#0 431827297#1 431827297#2 431827297#3 314066417 24160012#0 24160012#1 98246952 535554959#0 -854227939 -854227942 -507058716 -25046412#6 -25046412#5 999609883#0 999609883#1 -25046387 24405506#4 24405506#5 24405506#6 24405506#7 25043042 25042889#2 25042889#3 1168287297#0 1168287297#1 1168287297#2 1168287297#3 1168287297#4 24405492#0 24405492#1 -24405492#1"/>
    </vehicle>
    <vehicle id="45" depart="67.50">
        <route edges="-24683610#1 -24683610#0 24405502#3 -854227946#4 -854227946#3 -854227946#2 -854227946#1 -854227946#0 179181038#0 179181038#1-AddedOnRampEdge 179181038#1 179181038#2 179181038#3 1094268114#0 1094268114#1 -999609877 1094268113 25054145#0 25054145#1 854227948 27347564#0 27347564#1 24783924#2 24783924#3"/>
    </vehicle>
    <vehicle id="46" depart="69.00">
        <route edges="293255730#1 -431775780 -431827307#1 -431827307#0 431827306#0 431827306#1 431827306#2 431827306#3 431827306#4 293255544#0 24683547#0 -895263280"/>
    </vehicle>
    <vehicle id="47" depart="70.50">
        <route edges="-24405502#3 24405502#3 -854227946#4 -854227946#3 -854227946#2 -854227946#1 -854227946#0 179181038#0 179181038#1-AddedOnRampEdge 179181038#1 652088615#1 652088615#1-AddedOffRampEdge 652044149 25054595#2 25054595#3 25054595#4 25054595#5 25054595#6 25054595#7 25054602#1 25054602#2 432770910#0 432770910#1 -432770910#1 -432770910#0"/>
    </vehicle>
    <vehicle id="48" depart="72.00">
        <route edges="98246944#8 98246944#9 -24405494#1 -24405494#0 1168799438#0 1168799438#1 276638492#0 276638492#1 276638492#2 276636146#0 276636146#1 276636146#2 276636146#3 276636146#4 276636146#5 276636146#6 -854227942 -507058716 -25046412#6 -25046412#5 999609883#0 999609883#1 24405509#0 24405509#1"/>
    </vehicle>
    <vehicle id="49" depart="73.50">
        <route edges="894591151 -25046418#0 -25046417#0 507058715 1168287295 -279628270 24405490#0 -107938350#2 -107938350#1 -107938350#0 25042889#9 25042889#9-AddedOffRampEdge 25042889#10 25042889#11 98246921 24160013 -660590671 -854227943#0 854227941 854227939 535554959#1 98246944#1 98246944#2 98246944#3 98246944#4 98246944#5 98246944#6 98246944#7 98246944#8 98246944#9 98246944#10 98246944#11 98246944#12 98246944#13 98246944#13-AddedOffRampEdge 98246944#14 429690526 429690525"/>
    </vehicle>
    <vehicle id="50" depart="75.00">
        <route edges="-1094268112 -25054596#3 -25054596#2 -25054596#1 -25054596#0 -432775731#0 -432775732#1 220666028#2 25054595#5 25054595#6 25054595#7 199568036#0 199568036#1 25042919#0 25042919#1 25042919#2 432777386#0 432777386#1 432777386#2 432777386#3 432777386#4 432777386#5 432777386#6 -25054219#1 -25054219#0 -24405516#1 -24405516#0 -25054228#1 -25054228#0 -25054216#0 -24405514#0 24405513 -24405507#5 -24405504#1 -24405504#0 -1168801372 25046409"/>
    </vehicle>
    <vehicle id="51" depart="76.50">
        <route edges="25042919#2 -25042918#1 25042920#2 25042920#3 -25042911#1 -25042911#0 98231048#2 376543466#0 376543466#1 376543466#2 -24405506#8 -24405506#7 -24405506#6 -24405506#5 -24405506#4 25046387 -999609883#1 -999609883#0 25046412#5 199881960#0 1175651171 507058717#0 507058717#1 25042889#11 98246921 1168283956 535922410-AddedOnRampEdge 535922410 431981407 535910625#0 -24683612#2 24405520#1 24405520#2 24405520#3"/>
    </vehicle>
    <vehicle id="52" depart="78.00">
        <route edges="-25054221#0 -25054219#0 -24405516#1 -24405516#0 -25054228#1 -25054228#0 -25054216#0 24405514#1 24405514#2 422730660#1 535572607 83002986 535574528 893289558 462693003 238875365 1168109380 535922409 431981408#0 431981408#1 431981408#2 238875364#0 238875364#1 238875364#2 24683519#0 24683519#1 431994306 431775779 431827300#0 24683535#3 24683536 948224714 -948224715 -948224713 -24791336#1 -24791336#0 24791335#6 -302965728#5 -302965728#4 -302965728#3 -302965728#2 24791345#0"/>
    </vehicle>
    <vehicle id="53" depart="79.50">
        <route edges="-24683612#1 -24683612#0 24683611#0 24683611#1 1168126740 854227946#4 -24405502#3 -24405502#2 -24405502#1 -24405502#0 893289558 462693003 238875365 1168109380 535922409 24160010 541024817 83002985 1163917760 25042886 98246952 535554959#0 -854227939 -854227942 -507058716 -25046412#6 -25046412#5 999609883#0 999609883#1 -25046387 24405506#4 24405506#5 24405506#6 24405506#7 25043042 25042889#2 25042889#3 25042889#4 25042889#5 -107938350#6 -107938350#5 -107938350#4 -107938350#3 -107938350#2 -107938350#1 107938350#1"/>
    </vehicle>
    <vehicle id="55" depart="82.50">
        <route edges="431827306#2 -431827306#2 -431827306#1 -431827306#0 431827307#0 431827307#1 24683531 431827302#0 431827302#1 431994306 -80477039#1 -80477039#0 -422425537#1 -422425537#0 24683514#0 24683514#1 431827297#0 431827297#1 431827297#2 431827297#3 199885792 428326182 314066418-AddedOnRampEdge 314066418 535572607 535572605#0 535572605#1 535566694#0 25054595#0 25054595#1 25054595#2 25054595#3 25054595#4 -220666028#2 -220666028#1 432770529#1 432770531#0 432770531#1 -25054598#0"/>
    </vehicle>
    <vehicle id="56" depart="84.00">
        <route edges="179181038#5 334560315#0 457320396#3 457320396#4 457320396#5 457320396#6 652088615#0 652088615#1 652088615#1-AddedOffRampEdge 652044149 25054595#2 25054595#3 25054595#4 25054595#5 25054595#6 25054595#7 199568036#0 199568036#1 25042919#0 -25042916#1 -25042916#0 -25042915#3 -25042908#1 -25042914#1"/>
    </vehicle>
    <vehicle id="57" depart="85.50">
        <route edges="432777386#6 -25054219#1 -25054219#0 -24405516#1 -24405516#0 -25054228#1 -25054228#0 -25054216#0 24405514#1 24405514#2 422730660#1 535572607 83002986 535574528 893289558 462693003 238875365 1168109380 535922409 431981408#0 431981408#1 431981408#2 238875364#0 238875364#1 238875364#2 431994307 431994307-AddedOffRampEdge 276623569 1094534966 186530820#0 186530820#1 431827304#0 431827304#1 431827304#2 431827304#3 431827304#4"/>
    </vehicle>
    <vehicle id="58" depart="87.00">
        <route edges="-27408621#1 -27408621#0 -24783924#8 -24783924#7 -24783924#6 -24783924#5 -24783924#4 -24783924#3 -24783924#2 -27347564#1 -27347564#0 -854227948 457320396#0 457320396#1 457320396#2 457320396#3 457320396#4 457320396#5 457320396#6 457320396#7 854227946#0 854227946#1 854227946#2 854227946#3 854227946#4 -24405502#3 -24405502#2 -24405502#1 -24405502#0 893289558 462693003 238875365 1168109380 535922409 431981408#0 431981408#1 431981408#2 238875364#0 238875364#1 238875364#2 24683519#0 24683519#1 431994306 431775779 431827300#0 24683535#3 24683536 948224714 -948224715 -948224713 -24791336#1 -24791336#0 -24791335#5 24791342#0 24791342#1 24791342#2 24791342#3"/>
    </vehicle>
    <vehicle id="60" depart="90.00">
        <route edges="25054595#7 199568036#0 199568036#1 25042919#0 25042919#1 25042919#2 432777386#0 432777386#1 432777386#2 432777386#3 432777386#4 432777386#5 432777386#6 -25054219#1 -25054219#0 -24405516#1 -24405516#0 -25054228#1 -25054228#0 -25054216#0 24405514#1 24405514#2 422730660#1 535572607 83002986 535574528 24405502#0 24405502#1 1094261603#0 24405524"/>
    </vehicle>
    <vehicle id="61" depart="91.50">
        <route edges="27347564#3 27347564#4 -27347564#4 -27347564#3 -27347564#2 -27347564#1 -27347564#0 -854227948 457320396#0 457320396#1 457320396#2 457320396#3 457320396#4 457320396#5 457320396#6 457320396#7 854227946#0 854227946#1 854227946#2 854227946#3 854227946#4 -24405502#3 -24405502#2 -24405502#1 -24405502#0 893289558 462693003 238875365 1168109380 535922409 24160010 541024817 83002985 1163917760 25042886 98246952 535554959#0 -854227939 -854227942 854227943#0 854227943#1 1168801372 24405511#0 24405511#1"/>
    </vehicle>
    <vehicle id="62" depart="93.00">
        <route edges="-107938350#0 25042889#9 25042889#9-AddedOffRampEdge 25042889#10 25042889#11 98246921 24160013 -660590671 -854227943#0 854227941 -276636146#6 -276636146#5 -276636146#4 -276636146#3 -276636146#2 -276636146#1 -276636146#0 293255910#0 293255910#1 293255909#0 -376539776"/>
    </vehicle>
    <vehicle id="63" depart="94.50">
        <route edges="-1168287297#2 -1168287297#1 -1168287297#0 25042889#4 25042889#5 -107938350#6 -107938350#5 -107938350#4 -107938350#3 -107938350#2 -107938350#1 -107938350#0 25042889#9 25042889#9-AddedOffRampEdge 25042889#10 25042889#11 98246921 24160013 -660590671 854227943#1 -854227944 -24405510 1080119679 24405514#2 422730660#1 535572607 535572605#0 535572605#1 535566694#0 25054595#0 25054595#1 25054595#2 652044150 534799444#3-AddedOnRampEdge 534799444#3 535569073"/>
    </vehicle>
    <vehicle id="64" depart="96.00">
        <route edges="431981402 -1168361906 -538972998#0 -97293752#1 -97293752#0 -538972997#0 -25043183#1 -25043183#0 -421121876#1 421121863#0 421121863#1 25043182#0 25043182#1 -25044929#1 25044933#1 25044933#2 376542025#2"/>
    </vehicle>
    <vehicle id="66" depart="99.00">
        <route edges="431947110#0 431947110#1 535554955#0 535554955#1 535554955#2 140207471 805508870#1 805508870#2-AddedOnRampEdge 805508870#2 805508870#3 431827298 535569424 431827297#0 431827297#1 431827297#2 431827297#3 199885792 428326182 314066418-AddedOnRampEdge 314066418 535572607 83002986 535574528 24405502#0 24405502#1 24405502#2 24405502#3 -854227946#4 -854227946#3 -854227946#2 -854227946#1 -854227946#0 179181038#0 179181038#1-AddedOnRampEdge 179181038#1 652088615#1 652088615#1-AddedOffRampEdge 652044149"/>
    </vehicle>
    <vehicle id="67" depart="100.50">
        <route edges="-24683524#1 -24683524#0 431827306#2 276626522 24683525#2 24683525#3 24683527#2 24683527#3 24683554#0 24683554#1 24683556 877695144 895462378#0 895462378#1 -895462375#1 -895462375#0 302965727#3 302965727#4 302965727#5 302965727#6 -895216932#6 -895216932#5 -895216932#4 -1380250677 1380250677"/>
    </vehicle>
    <vehicle id="68" depart="102.00">
        <route edges="-24405506#9 -376543466#2 -376543466#1 -376543466#0 -98231048#2 25042911#0 25042911#1 -25042920#3 -25042920#2 -25042920#1 -376543469#2 -25042919#1 -25042919#0 -199568036#1 -199568036#0 25054602#1 -25054591#3 25054592#0"/>
    </vehicle>
    <vehicle id="70" depart="105.00">
        <route edges="1168126740 854227946#4 -24405502#3 -24405502#2 -24405502#1 -24405502#0 893289558 462693003 238875365 1168109380 535922409 431981408#0 431981408#1 431981408#2 238875364#0 238875364#1 238875364#2 24683519#0 24683519#1 -431827302#1 -431827302#0 -24683531 24683531"/>
    </vehicle>
    <vehicle id="71" depart="106.50">
        <route edges="-25054219#0 -24405516#1 -24405516#0 -25054228#1 -25054228#0 -25054216#0 24405514#1 24405514#2 422730660#1 535572607 83002986 535574528 893289558 462693003 238875365 1168109380 535922409 431981408#0 431981408#1 431981408#2 238875364#0 238875364#1 238875364#2 24683519#0 24683519#1 -431827302#1 -431827302#0 -24683531 -431827307#1 -431827307#0 431827306#0 431827306#1"/>
    </vehicle>
    <vehicle id="73" depart="109.50">