<configuration>
    <input>
        <net-file value="..\input\simon_bolivar.net.xml"/>
        <route-files value="..\input\routes_type1_500.rou.xml"/>
        <additional-files value="..\input\vehicles.add.xml,..\input\roi_simon_bolivar.add.xml"/>
    </input>
    <time>
        <begin value="0"/>
        <end value="3600"/>
    </time>
    <output>
        <tripinfo-output value="..\output\tripinfo_type1_500.xml"/>
    </output>
</configuration>
