<configuration>
  <input>
    <net-file value="..\input\simon_bolivar.net.xml" />
    <route-files value="..\input\simon_bolivar_roi_60.rou.xml" />
    <additional-files value="..\input\vehicles.add.xml,..\input\roi_simon_bolivar.add.xml" />
  </input>
  <time>
    <begin value="0" />
    <end value="3600" />
  </time>
</configuration>
