<configuration>
    <input>
        <net-file value="../input/simon_bolivar.net.xml"/>
        <route-files value="../input/simon_bolivar.rou.xml"/>
	<additional-files value="../input/roi_simon_bolivar.add.xml"/>
    </input>
    <time>
        <begin value="0"/>
        <end value="400"/>
    </time>
    <output>
        <tripinfo-output value="../output/tripinfo.xml"/>
    </output>
</configuration>
