<?xml version="1.0" encoding="UTF-8"?>

<!-- generated on 2025-05-04 03:38:16 by Eclipse SUMO netedit Version 1.18.0
-->

<additional xmlns:xsi="http://www.w3.org/2001/XMLSchema-instance" xsi:noNamespaceSchemaLocation="http://sumo.dlr.de/xsd/additional_file.xsd">
    <!-- Shapes -->
    <poly id="ROI_SIMON_BOLIVAR" type="ROI" color="blue" fill="1" layer="0.00" name="SIMON_BOLIVAR" shape="2463.549203,4540.904965 2489.320913,4515.133255 2520.749828,4496.904485 2541.492911,4482.447184 2578.579031,4459.818365 2602.465006,4444.103908 2619.436620,4421.475089 2635.779655,4393.817645 2642.065438,4359.874417 2647.094064,4324.045454 2648.351221,4267.473408 2637.036812,4221.587193 2577.950452,4237.930228 2579.836187,4302.045214 2555.950212,4332.845550 2517.606936,4349.188586 2520.121249,4313.359623 2495.606696,4286.330757 2466.692095,4280.044974 2432.748867,4279.416395 2415.148675,4295.759431 2406.348579,4273.130613 2329.662027,4278.159239 2347.890797,4301.416636 2312.690413,4303.302371 2280.004342,4341.017068 2280.004342,4366.788778 2297.604534,4393.817645 2233.489548,4408.903524 2237.261018,4484.332919 2368.005303,4546.562170 2462.292047,4541.533543"/>
</additional>
