<?xml version='1.0' encoding='UTF-8'?>
<routes xmlns:xsi="http://www.w3.org/2001/XMLSchema-instance" xsi:noNamespaceSchemaLocation="http://sumo.dlr.de/xsd/routes_file.xsd">
    <vehicle id="0" depart="0.00">
        <route edges="-25046393#0 25046391#1 1168305905#2 24405507#0 24405507#1 24405507#2 24405507#3 24405512#0 24405512#1 24405514#0 25054216#0 25054216#1 25054228#1 24405516#0 -25054223#1 -376543476#1 -25054221#0" />
    </vehicle>
    <vehicle id="2" depart="0.00">
        <route edges="293256120#3 -24699018#0 24699019#1 -432248099#2 -432248099#1 -432248099#0 -429690524#1 -429690524#0 24735605 98246944#19 98246944#19-AddedOffRampEdge 535549123#0 535549123#1 25042894 1168311253#0 1168311253#1 1168311253#2 1168311253#3 376543461 98231048#1 25042911#0 25042911#1 -25042920#3 -25042920#2 25042918#1 432777386#0 25042922#2 25042922#3" />
    </vehicle>
    <vehicle id="3" depart="0.00">
        <route edges="25045239#0 25045239#1 25045239#2 25045239#3 229472855#0 229472855#1 429529117#0 229472854 432770522 431981404#0 431981404#1 -35631490 25042905#0 25042905#1 25042905#2 897097402#0 897097402#1 897097401#0 376543462 750058067#1 750058067#2 750058067#3 769933617 421121973 25042900#2 25042900#3" />
    </vehicle>
    <vehicle id="4" depart="1.00">
        <route edges="-25111439#1 25111441#2 -25042891#3 -25042891#2 -25042891#1 -25042891#0 -421121876#1 -421121876#0 24159814#2 535554957 25042889#0 25042889#1 25042889#2 25042889#3 1168287297#0 1168287297#1 1168287297#2 1168287297#3 -1168287297#3" />
    </vehicle>
    <vehicle id="5" depart="2.00">
        <route edges="31895149#0 31895149#1 31895149#2 25042890 97293743#0 97293743#1 35631491#0 35631491#1 35631490 -25043183#1 -25043183#0 -421121876#1 -421121876#0 24159814#2 535554957 25042889#0 -24405506#9 -24405506#8 -24405506#7 -24405506#6 -24405506#5 -24405506#4 -24405506#3 -24405506#2 -24405506#1 -24405506#0 24405507#0 25046403#0 372239269#0 -372239271" />
    </vehicle>
    <vehicle id="6" depart="2.00">
        <route edges="25054599 -432770531#2 -432770531#1 -432770531#0 -432770529#1 -220666028#0 -432770526#2 -432770526#1 -432770526#0 -376545741#1 -376545741#0 -25054584#1 -25054584#0 432770524 432807560 432777381#0 432777381#1 432777381#2 229472854 432770522 431981404#0 431981404#1 -35631490 -431981406 -35631491#0 -97293743#1 -24735617#1 -24735617#0 -432248098 -626957569#1 24735611#0 24735614 24735612#2 24735612#3" />
    </vehicle>
    <vehicle id="10" depart="3.00">
        <route edges="535554959#1 -1201829325 1201829326#1 -854227939 -854227942 -507058716 -25046412#6 -25046412#5 999609883#0 999609883#1 -25046387 24405506#4 24405506#5 24405506#6 24405506#7 25043042 25042889#2 25042889#3 25042889#4 25042889#5 -107938350#6 -107938350#5 -107938350#4 -107938350#3 24405490#1 24405487#0 24405487#1 24405487#2" />
    </vehicle>
    <vehicle id="11" depart="3.00">
        <route edges="-25046433#1 -1201838048 429531573#1 25042889#7 25042889#8 25042889#9 25042889#9-AddedOffRampEdge 25042889#10 25042889#11 98246921 24160013 -660590671 854227943#1 -854227944 -24405510 1080119679 24405514#2 422730660#1 535572607 83002986 535574528 24405502#0 24405502#1 1094261603#0 1094261603#1 1094261603#2 1094261603#3 1094261603#4 1094268117" />
    </vehicle>
    <vehicle id="12" depart="3.00">
        <route edges="-25042920#2 25042920#2 25042920#3 -25042911#1 -25042911#0 98231048#2 376543466#0 376543466#1 376543466#2 -24405506#8 -24405506#7 -24405506#6 -24405506#5 -24405506#4 25046387 -999609883#1 -999609883#0 25046412#5 25046412#6 25046412#7 854227941 -276636146#6 -276636146#5 -276636146#4 -276636146#3 -276636146#2 -276636146#1 -276636146#0 293255910#0 293255910#1 107938377#0 1201838049" />
    </vehicle>
    <vehicle id="13" depart="4.00">
        <route edges="25054217#0 25054224#0 25054224#1 -25054228#0 -25054216#0 24405514#1 24405514#2 422730660#1 535572607 535572605#0 535572605#1 535566694#0 25054595#0 25054595#1 25054595#2" />
    </vehicle>
    <vehicle id="19" depart="5.00">
        <route edges="-25054587#1 25054587#1 25054587#2 432770524 432807560 432777381#0 432777381#1 432777381#2 229472854 432770522 431981404#0 431981404#1 -35631490 -431981406 -35631491#0 25042892" />
    </vehicle>
    <vehicle id="23" depart="8.00">
        <route edges="293256038 432248095 -276638494#1 -276638494#0 292747017#0 292747017#1 1168799438#0 1168799438#1 276638492#0 276638492#1 276638492#2 276636146#0 276636146#1 276636146#2 276636146#3 276636146#4 276636146#5 276636146#6 -854227942 854227943#0 854227943#1 -854227944 -24405510 1080119679 24405514#2 422730660#1 535572607 535572605#0 535572605#1 535566694#0 25054595#0 25054595#1 25054595#2 25054595#3 25054595#4 -220666028#2 432775732#1 432775731#0 432775731#1" />
    </vehicle>
    <vehicle id="24" depart="9.00">
        <route edges="1205662257#1 1205662257#2 1205667518 -1168542191#0 1168542191#0" />
    </vehicle>
    <vehicle id="26" depart="9.00">
        <route edges="27347564#3 -27347564#3 -27347564#2 -27347564#1 -27347564#0 -854227948 457320396#0 457320396#1 457320396#2 457320396#3 457320396#4 457320396#5 457320396#6 652088615#0 652088615#1 652088615#1-AddedOffRampEdge 652044149 25054595#2 25054595#3 25054595#4 25054595#5 25054595#6 25054595#7 25054602#1 25054602#2 25054587#0 25054587#1 25054587#2 432770524 432807560 432777381#0 432777381#1 432777381#2 -429529117#0 -229472855#1 -229472855#0 -25045239#3 -25045239#2 25054869 -25054870#1" />
    </vehicle>
    <vehicle id="28" depart="9.00">
        <route edges="-1094298143#0 -420905084 -24683536 -24683535#3 -431827300#0 -431775778 -431775779 -80477039#1 -80477039#0 -422425537#1 -422425537#0 -24683513 874437282 24683515#1 24683515#2 24683518 -534900635#0 -276636146#4 -276636146#3 -276636146#2 -276636146#1 -276636146#0 293255910#0 293255910#1 293255909#0 293255909#1 293255909#2 276602814#0" />
    </vehicle>
    <vehicle id="31" depart="11.00">
        <route edges="-25054218 -432777386#5 -432777386#4 -432777386#3 -432777386#2 -432777386#1 -432777386#0 -25042918#1 25042920#2 25042920#3 -25042911#1 -25042911#0 98231048#2 376543466#0 376543466#1 376543466#2 -24405506#8 -24405506#7 -24405506#6 -24405506#5 25043046#1 25043046#2 25046811#0 25046811#1 -25046811#1" />
    </vehicle>
    <vehicle id="32" depart="11.00">
        <route edges="25054142#2 1094268116 999609877 1094268115#0 457320396#6 652088615#0 652088615#1 652088615#1-AddedOffRampEdge 652044149 25054595#2 25054595#3 25054595#4 25054595#5 25054595#6 25054595#7 25054602#1 25054602#2 25054587#0 25054587#1 25054587#2 432770524 432807560 -25042926" />
    </vehicle>
    <vehicle id="34" depart="11.00">
        <route edges="-25111440#1 -25111440#0 -25044928#3 -25044928#2 -25044928#1 -25044928#0 -421121863#0 -421121876#0 24159814#2 535554957 25042889#0 -24405506#9 -24405506#8 -24405506#7 -24405506#6 -24405506#5 -24405506#4 25046387 -999609883#1 -999609883#0 25046412#5 25046412#6 25046412#7 854227941 -276636146#6 -276636146#5 -276636146#4 -276636146#3 -276636146#2 -276636146#1 -276636146#0 -276638492#2 107938371 293255911#2" />
    </vehicle>
    <vehicle id="36" depart="13.00">
        <route edges="535910621#1 535910621#1-AddedOffRampEdge 535910621#2 1087552159 24783924#0 24783924#1 -27347564#1 -27347564#0 -854227948 457320396#0 457320396#1 457320396#2 457320396#3 457320396#4 457320396#5 457320396#6 652088615#0 652088615#1 652088615#1-AddedOffRampEdge 652044149 25054595#2 25054595#3 25054595#4 25054595#5 25054595#6 25054595#7 199568036#0 199568036#1 25042919#0 25042919#1 376543469#2" />
    </vehicle>
    <vehicle id="37" depart="13.00">
        <route edges="-1205693235 -31896239#0 -24683557#0 -877695144 -24791386 -24683554#1 -24683554#0 -24683527#3 -24683527#2 -24683527#1 -24683527#0 24683531 431827302#0 431827302#1 431994306 -80477039#1 -80477039#0 -422425537#1 -422425537#0 -24683513 874437282 24683515#1 24683515#2 24683518 -534900635#0 -276636146#4 -276636146#3 -276636146#2 -276636146#1" />
    </vehicle>
    <vehicle id="38" depart="13.00">
        <route edges="1168283948 1168283951#1 314066420#2 25054142#0 25054142#1 25054142#2 1094268116 999609877 1094268115#0 457320396#6 652088615#0 652088615#1 652088615#1-AddedOffRampEdge 652044149 25054595#2 25054595#3 25054595#4 25054595#5 25054595#6 25054595#7 25054602#1 25054602#2 -25054602#2" />
    </vehicle>
    <vehicle id="40" depart="14.00">
        <route edges="192145205 431827307#0 431827307#1 24683527#0 24683527#1 24683527#2 24683527#3 24683554#0 24683554#1 24683556 877695144 895462378#0 895462378#1 -895462375#1 -895462375#0 302965727#3 302965727#4 302965727#5 302965727#6 -895216932#6 -895216932#5 -895216932#4 -895216932#3 -895216932#2 -895216932#1 -895216932#0 637275761#1 -637275761#1" />
    </vehicle>
    <vehicle id="42" depart="15.00">
        <route edges="668297058 376539196#3 24699025#3 24699025#4 24699025#5 24699025#6 24699025#7 24699025#8 24699032#0 292747017#1 1168799438#0 1168799438#1 276638492#0 276638492#1 276638492#2 276636146#0 276636146#1 276636146#2 276636146#3 276636146#4 534900635#0 534900635#1 -24683515#2 -24683515#1 -874437282 24683513 422425537#0 422425537#1 422425537#2 80477039#1 -431994306 -431827302#1 -431827302#0 -24683531 24683527#0 24683527#1 24683527#2 24683527#3 24683554#0 24683554#1 24683556 877695144 24683557#0 31896239#0 31896239#1 1205693236" />
    </vehicle>
    <vehicle id="43" depart="16.00">
        <route edges="-895216896#0 895216895 895216896#1 -895216933#1 1094282282 24791350#3 24791350#4 637275761#0 895216932#0 895216932#1 895216932#2 895216932#3 895216932#4 895216932#5 895216932#6 -302965727#6 -302965727#5 -302965727#4 -302965727#3 895462375#0 895462375#1 -895462378#1 -895462378#0 -877695144 -24791386 24683556 877695144" />
    </vehicle>
    <vehicle id="44" depart="16.00">
        <route edges="-25054590#2 -25054592#0 25054591#3 25054602#2 25054587#0 25054587#1 25054587#2 432770524 432807560 432777381#0 432777381#1 432777381#2 229472854 432770522 431981404#0 431981404#1 -35631490 -431981406 -35631491#0 -97293743#1 -97293743#0 -25042890 -895454005 25042887#0 25042887#1 25042887#2 -25044577 -25035452#3 -25035452#2 -25044578 -25035451#1 -25035451#0" />
    </vehicle>
    <vehicle id="46" depart="17.00">
        <route edges="24405487#0 24405487#1 24405487#2 429531573#1 25042889#7 25042889#8 25042889#9 25042889#9-AddedOffRampEdge 25042889#10 25042889#11 98246921 24160013 -660590671 -854227943#0 854227941 -276636146#6 -276636146#5 -276636146#4 -276636146#3 -276636146#2 -276636146#1 -276636146#0 -276638492#2 -276638492#1 -276638492#0 -1168799438#1 -1168799438#0 -292747017#1 -24699032#0 -24699025#8 -376539199 24699027#5 -24699027#5" />
    </vehicle>
    <vehicle id="47" depart="17.00">
        <route edges="24735616#3 -432248099#5 -432248099#4 -432248099#3 -432248099#2 -432248099#1 -432248099#0 -429690524#1 -429690524#0 24735605 98246944#19 98246944#19-AddedOffRampEdge 535549123#0 535549123#1 25042894 1168311253#0 1168311253#1 1168311253#2 1168311253#3 376543461 98231048#1 25042911#0 25042915#0 25042915#1 25042915#2 25042915#3 25042915#4" />
    </vehicle>
    <vehicle id="48" depart="18.00">
        <route edges="-1168305905#1 1168305905#1 1168305905#2 24405507#0 25046403#0 25046407#0 372239268 -372239268" />
    </vehicle>
    <vehicle id="50" depart="19.00">
        <route edges="626957569#1 -626957569#1 -626957569#0 -24735606 -432248096 -1168287299#1 -1168287299#0 -432248094 -276638494#1 -276638494#0 292747017#0 292747017#1 1168799438#0 1168799438#1 276638492#0 276638492#1 276638492#2 276636146#0 276636146#1 276636146#2 276636146#3 276636146#4 276636146#5 276636146#6 -854227942 854227943#0 854227943#1 -854227944 -24405510 24405510 854227944" />
    </vehicle>
    <vehicle id="51" depart="20.00">
        <route edges="1094261605 -372239261#1 -372239261#0 199881958 24405506#3 25046387 -999609883#1 -999609883#0 25046412#5 25046412#6 25046412#7 854227941 -276636146#6 -276636146#5 -276636146#4 -276636146#3 -276636146#2 -276636146#1 -276636146#0 -276638492#2 -276638492#1 -276638492#0 -1168799438#1 -1168799438#0 -292747017#1 -24699032#0 -24699025#8 -24699025#7 -24699025#6 -24699025#5 -24699025#4 -24699025#3 -376539196#3 -668297058" />
    </vehicle>
    <vehicle id="52" depart="20.00">
        <route edges="179181038#3 1094268114#0 457320396#5 457320396#6 457320396#7 854227946#0 854227946#1 25054141 -1094268118#1" />
    </vehicle>
    <vehicle id="55" depart="21.00">
        <route edges="-25054582#0 429529117#0 -432777381#2 -432777381#1 -432777381#0 432777382 432807558 -432777384 25042919#0 25042919#1 25042919#2 432777386#0 432777386#1 432777386#2 432777386#3 432777386#4 432777386#5 432777386#6 432777387 -432777387 -432777386#6" />
    </vehicle>
    <vehicle id="56" depart="21.00">
        <route edges="-31896236#1 31896236#1 31896236#2 -302965727#14 -302965727#13 -754427033 637275761#0 895216932#0 895216932#1 895216932#2 895216932#3 895216932#4 895216932#5 895216932#6 -302965727#6 -302965727#5 -302965727#4 -302965727#3 895462375#0 895462375#1 -895462378#1 -895462378#0 -877695144 -24791386 -24683554#1 -24683554#0" />
    </vehicle>
    <vehicle id="57" depart="22.00">
        <route edges="-25044575 25044574#1 25044576#0 25044576#1 25044576#2 25044576#3 31895149#0 31895149#1 31895149#2 25042890 97293743#0 97293743#1 35631491#0 35631491#1 35631490 -25043183#1 -25043183#0 -421121876#1 -421121876#0 24159814#2 535554957 25042889#0 -24405506#9 -24405506#8 -24405506#7 -24405506#6 -24405506#5 -24405506#4 -24405506#3 -24405506#2 -24405506#1 -24405506#0 24405507#0 24405507#1 24405507#2 24405507#3 24405512#0 24405512#1 24405514#0 24405514#1 24405514#2 422730660#1 535572607 535572605#0 535572605#1 535566686 -1216978710 1216978709#0" />
    </vehicle>
    <vehicle id="58" depart="22.00">
        <route edges="-24405490#1 -107938350#2 -107938350#1 107938350#1" />
    </vehicle>
    <vehicle id="59" depart="23.00">
        <route edges="-24683538#1 -24683538#0 -24791338#1 24683537 -1205693234#1 -1205693234#0 -1094298143#0 -420905084 -24683536 -24683535#3 -431827300#0 -431775778 -431775779 -431994306 -431827302#1 -431827302#0 -24683531 24683527#0 24683527#1 24683527#2 24683527#3 24683554#0 24683554#1 31896253" />
    </vehicle>
    <vehicle id="60" depart="23.00">
        <route edges="25054870#2 -25054870#2 -25054869 25045239#2 25045239#3 229472855#0 229472855#1 429529117#0 229472854 432770522 431981404#0 431981404#1 -25043183#1 -25043183#0 -421121876#1 -421121876#0 24159814#2 535554957 25042889#0 -24405506#9 -24405506#8 -24405506#7 -24405506#6 -24405506#5 -24405506#4 -24405506#3 -24405506#2 -24405506#1 -24405506#0 24405507#0 25046403#0 25046407#0 25046407#1 25046407#2" />
    </vehicle>
    <vehicle id="63" depart="24.00">
        <route edges="25042914#1 25042914#2 25042914#3 -25042910#0 98231048#0 98231048#1 98231048#2 376543466#0 376543466#1 376543466#2 -24405506#8 -24405506#7 -24405506#6 -24405506#5 -24405506#4 -24405506#3 -24405506#2 -24405506#1 -24405506#0 24405507#0 24405507#1 24405507#2 24405507#3 24405512#0 24405512#1 24405514#0 24405514#1 24405514#2 422730660#1 535572607 83002986 535574528 24405502#0 24405502#1 24405502#2 24405502#3 -854227946#4 -854227946#3 25054139 25054138#3 25054138#4 334559786" />
    </vehicle>
    <vehicle id="67" depart="26.00">
        <route edges="-431981406 -35631491#0 35631491#0 35631491#1 35631490 -431981404#1 -431981404#0 -432770522 -229472854 -432777381#2 -432777381#1 -432777381#0 -432807560 -432770524 25054584#0 25054584#1 376545741#0 376545741#1 432770526#0 -25054591#0" />
    </vehicle>
    <vehicle id="70" depart="26.00">
        <route edges="-1205367604 457320396#2 457320396#3 457320396#4 457320396#5 457320396#6 652088615#0 652088615#1 652088615#1-AddedOffRampEdge 652044149 25054595#2 25054595#3 25054595#4 25054595#5 25054595#6 25054595#7 25054602#1 25054602#2 25054587#0 25054587#1 25054587#2 432770524 432807560 432777381#0 432777381#1" />
    </vehicle>
    <vehicle id="71" depart="27.00">
        <route edges="25042920#2 25042920#3 -25042911#1 -25042911#0 98231048#2 376543466#0 376543466#1 376543466#2 -24405506#8 -24405506#7 -24405506#6 -24405506#5 25043046#1 25043046#2 25046811#0 25046811#1 668298286 668298285#0 668298285#1" />
    </vehicle>
    <vehicle id="73" depart="27.00">
        <route edges="24405520#0 24683612#2 535910625#1 541024816 535566679#0 535566679#1 535566679#1-AddedOffRampEdge 314066420#1 314066420#2 314066420#3 535910621#1 535910621#1-AddedOffRampEdge 535910621#2 1087552159 24783924#0 24783924#1 24783924#2 24783924#3 24783924#4 24783924#5 24783924#6 -534900637#4 -534900637#3 -534900637#2 -534900637#1 -534900637#0 534900637#0" />
    </vehicle>
    <vehicle id="75" depart="28.00">
        <route edges="-24699038 24699036#3 -276602814#0 -293255909#2 -293255909#1 -293255909#0 -293255910#1 -293255910#0 -276638492#2 -276638492#1 -276638492#0 -1168799438#1 -1168799438#0 -292747017#1 -292747017#0 -24699030#2 -24699030#1 -24699030#0 -24699029#3 -24699029#2 -24699029#1 -24699029#0 24735615 432234379#0 432234379#1 25043787 -337312509#0" />
    </vehicle>
    <vehicle id="76" depart="29.00">
        <route edges="31895149#1 31895149#2 25042890 97293743#0 -24735617#1 -24735617#0 -432248098 -626957569#1 -626957569#0 -24735606 -432248096 -1168287299#1 -1168287299#0 -626957571#1 -626957571#0 -24699030#0 24699025#0 24699025#1 24699025#2 24699025#3 24699025#4 -376539197" />
    </vehicle>
    <vehicle id="77" depart="30.00">
        <route edges="25111445#1 25111445#2 25111445#3 25111441#1 25111441#2 -25042891#3 -25042891#2 -25042891#1 -25042891#0 25043183#0 25043183#1 -431981404#1 -431981404#0 -432770522 -229472854 -432777381#2 -432777381#1 -432777381#0 -432807560 -432770524 -25054587#2 -25054587#1 -25054587#0 -25054602#2 -25054602#1 -25054602#0 -25054590#2 25054590#2" />
    </vehicle>
    <vehicle id="80" depart="31.00">
        <route edges="-25046388 1168305905#0 1168305905#1 1168305905#2 24405507#0 24405507#1 24405507#2 24405507#3 24405512#0 24405512#1 24405514#0 25054216#0 25054216#1 25054228#1 25054228#2 25054228#3 25054228#4" />
    </vehicle>
    <vehicle id="81" depart="31.00">
        <route edges="-25054870#2 -25054869 25045239#2 25045239#3 229472855#0 229472855#1 429529117#0 229472854 432770522 431981404#0 431981404#1 -25043183#1 -25043183#0 -421121876#1 -421121876#0 24159814#2 535554957 25042889#0 -24405506#9 -24405506#8 -24405506#7 -24405506#6 -24405506#5 -24405506#4 25046387 -999609883#1 -999609883#0 25046412#5 25046412#6 25046412#7 854227941 -276636146#6 -276636146#5 -276636146#4 -276636146#3 -276636146#2 -276636146#1 -276636146#0 293255910#0 293255910#1 293255909#0 293255909#1 293255909#2 -24699039#1 376539777 376539778#1" />
    </vehicle>
    <vehicle id="82" depart="32.00">
        <route edges="25042905#2 897097402#0 897097402#1 897097401#0 897097401#1 98231048#0 98231048#1 98231048#2 376543466#0 376543466#1 376543466#2 24405506#9 25042889#1 25042889#2 25042889#3 25042889#4 25042889#5 -107938350#6 -107938350#5 -107938350#4 107938350#4" />
    </vehicle>
    <vehicle id="88" depart="35.00">
        <route edges="-1205367605 337623511#1 25054146#2 25054146#3 457320396#4 457320396#5 457320396#6 652088615#0 652088615#1 652088615#1-AddedOffRampEdge 652044149 25054595#2 25054595#3 25054595#4 25054595#5 25054595#6 25054595#7 25054602#1 25054602#2 25054587#0 25054587#1 25054587#2 432770524 432807560 432777381#0 432777381#1 432777381#2 229472854 432770522 431981404#0 431981404#1 -35631490 -431981406 -35631491#0 -97293743#1 -97293743#0 -25042890 -895454005 25042887#0" />
    </vehicle>
    <vehicle id="91" depart="36.00">
        <route edges="-25042922#1 25042922#1 432777386#1 432777386#2 432777386#3 432777386#4 432777386#5 25054218 -25054218" />
    </vehicle>
    <vehicle id="93" depart="37.00">
        <route edges="-1190782927 894591187 24683560#6 24683560#7 24683560#8 24683559#1 -24683515#3 -24683515#2 -24683515#1 -874437282 24683513 422425537#0 422425537#1 422425537#2 80477039#1 431775779 431775778 431827300#0 24683535#3 24683535#4 24683535#5 24683535#6" />
    </vehicle>
    <vehicle id="95" depart="38.00">
        <route edges="24735618#0 -24735607#2 24699022#2 432248099#7 432762971 24735617#0 24735617#1 97293743#1 35631491#0 35631491#1 25042905#0 25042905#1 25042905#2 897097402#0 897097402#1 25042909" />
    </vehicle>
    <vehicle id="96" depart="38.00">
        <route edges="-1380250679#1 302965727#5 302965727#6 -895216932#6 -895216932#5 -895216932#4 -895216932#3 -895216932#2 -895216932#1 -895216932#0 -637275761#0 754427033 302965727#13 302965727#14 637275760 302965728#0 302965728#1 24791345#0 24791345#1 24791345#2 24791345#3 -24791345#3" />
    </vehicle>
    <vehicle id="97" depart="39.00">
        <route edges="-24699025#3 24699025#3 24699025#4 24699025#5 24699025#6 24699025#7 24699025#8 24699032#0 292747017#1 1168799438#0 1168799438#1 276638492#0 276638492#1 276638492#2 276636146#0 276636146#1 276636146#2 276636146#3 276636146#4 276636146#5 276636146#6 854227939 535554959#1 98246944#1 98246944#2 98246944#3 98246944#4 98246944#5 98246944#6 98246944#7 98246944#8 98246944#9" />
    </vehicle>
    <vehicle id="98" depart="39.00">
        <route edges="-24405510 -1168305904 -24405507#5" />
    </vehicle>
    <vehicle id="99" depart="39.00">
        <route edges="357850162 -199881960#1 -199881960#0 -25046412#5 999609883#0 999609883#1 -25046387 24405506#4 24405506#5 24405506#6 24405506#7 24405506#8 -376543466#2 -376543466#1 -376543466#0 -98231048#2 -98231048#1 -98231048#0 -897097401#1 -897097401#0 -897097402#1 -897097402#0 -25042905#2 -25042905#1 -25042905#0 35631490 -25043183#1 -25043183#0 25042891#0 25042891#1 25042891#2 25042891#3 -25111441#2 -25111441#1" />
    </vehicle>
    <vehicle id="100" depart="40.00">
        <route edges="-24791344#2 -24791344#1 -24791344#0 302965728#3 302965728#4 302965728#5 -24791335#6 24791336#0 24791336#1 948224713 948224715 -948224714 -24683536 -24683535#3 -431827300#0 -431775778 -431775779 -431994306 -431827302#1 -431827302#0 -24683531 -431827307#1 -431827307#0 431827306#0 431827306#1 431827306#2 431827306#3 431827306#4 293255544#0 293255544#1 24683546#0 24683546#1" />
    </vehicle>
    <vehicle id="103" depart="41.00">
        <route edges="-429529117#1 -432777381#2 -432777381#1 -432777381#0 -432807560 -432770524 -25054587#2 -25054587#1 25054585#3 25054585#4" />
    </vehicle>
    <vehicle id="105" depart="41.00">
        <route edges="534900637#0 534900637#1 534900637#2 534900637#3 534900637#4 -24783924#6 -24783924#5 -24783924#4 -24783924#3 -24783924#2 -27347564#1 -27347564#0 -854227948 457320396#0 457320396#1 457320396#2 457320396#3 457320396#4 457320396#5 457320396#6 652088615#0 652088615#1 652088615#1-AddedOffRampEdge 652044149 25054595#2 25054595#3 25054595#4 25054595#5 25054595#6 25054595#7 199568036#0 199568036#1 25042919#0 25042919#1 376543469#2 25042920#1 25042920#2 25042920#3 -25042911#1 -25042911#0 98231048#2 376543466#0 376543466#1 376543466#2 -24405506#8 -24405506#7 -24405506#6 -24405506#5 25043046#1 25043046#2 25046811#0 25046811#1 668298286 668298285#0 668298285#1" />
    </vehicle>
    <vehicle id="106" depart="41.00">
        <route edges="-432777383 -432777384 25042919#0 25042919#1 25042919#2 432777386#0 432777386#1 432777386#2 432777386#3 432777386#4 432777386#5 432777386#6 432777387 -25054219#1 -25054219#0 -24405516#1 -24405516#0 -25054228#1 -25054228#0 -25054216#0 24405514#1 24405514#2 422730660#1 535572607 83002986 535574528 24405502#0 24405502#1 24405502#2 24405502#3 -854227946#4 -854227946#3 -854227946#2 -854227946#1 -854227946#0 179181038#0 179181038#1-AddedOnRampEdge 179181038#1 179181038#2 179181038#3 179181038#4 -25054146#2 -337623511#1" />
    </vehicle>
    <vehicle id="107" depart="41.00">
        <route edges="-376542025#0 -25044928#3 -25044928#2 -25044928#1 -25044928#0 -421121863#0 -421121876#0 24159814#2 535554957 25042889#0 -24405506#9 -24405506#8 -24405506#7 -24405506#6 -24405506#5 -24405506#4 25046387 -999609883#1" />
    </vehicle>
    <vehicle id="109" depart="42.00">
        <route edges="-1190782926 894591163#3 894591187 24683560#6 24683560#7 24683560#8 24683559#1 -24683515#3 24683518 -534900635#0 276636146#5 276636146#6 -854227942 -507058716 -25046412#6 -25046412#5 999609883#0 999609883#1 -25046387 24405506#4 24405506#5 24405506#6 24405506#7 24405506#8 -376543466#2 -376543466#1 -376543466#0 -98231048#2 -98231048#1 -98231048#0 -897097401#1 -897097401#0 -897097402#1 -897097402#0 -25042905#2 -25042905#1 -25042905#0 35631490 538972997#0 538972997#1 97293752#1 25045235#0 25111486" />
    </vehicle>
    <vehicle id="111" depart="42.00">
        <route edges="376543474#3 -376543471 376543469#0 376543469#1 -25042919#1 -25042919#0 432777384 -432807558 -25042906#7 -25042906#6 -25042906#5 -429529117#1 -429529117#0 -229472855#1 -229472855#0 -25045239#3 -25045239#2 25054869 25054870#2" />
    </vehicle>
    <vehicle id="112" depart="43.00">
        <route edges="31896632 535554955#0 535554955#1 535554955#2 140207471 200206786 24699039#0 24699039#1 -293255909#2 -293255909#1 -293255909#0 -293255910#1 -293255910#0 276636146#0 276636146#1 276636146#2 276636146#3 276636146#4 276636146#5 276636146#6 -854227942 -507058716 -25046412#6 -25046412#5 999609883#0 999609883#1 -25046387 24405506#4 24405506#5 24405506#6 24405506#7 24405506#8 -376543466#2 -376543466#1 -376543466#0 -98231048#2 25042911#0 25042911#1 25042911#2" />
    </vehicle>
    <vehicle id="113" depart="44.00">
        <route edges="25111440#1 -25111440#1 -25111440#0 -25044928#3 -25044928#2 -25044928#1 -25044928#0 -421121863#0 -421121876#0 24159814#2 535554957 25042889#0 -24405506#9 -24405506#8 -24405506#7 -24405506#6 -24405506#5 -24405506#4 -24405506#3 -24405506#2 -24405506#1 -24405506#0 24405507#0 24405507#1 24405507#2 24405507#3 24405512#0 24405512#1 24405514#0 24405514#1 24405514#2 422730660#1 535572607 83002986 535574528 24405502#0 24405502#1 24405502#2 24405502#3 -854227946#4" />
    </vehicle>
    <vehicle id="114" depart="44.00">
        <route edges="-25054223#3 -25054223#2 24405516#1 25054219#0 25054219#1 -432777387 -432777386#6 -432777386#5 -432777386#4 -432777386#3 -432777386#2 -432777386#1 -432777386#0 -25042918#1 -25042918#0 25042915#2 -25042908#1 -25042908#0 897097402#1" />
    </vehicle>
    <vehicle id="115" depart="44.00">
        <route edges="25042910#0 -25042914#3 -25042909 -897097402#1 -897097402#0 -25042905#2 -25042905#1 -25042905#0 -431981406 -35631491#0 -97293743#1 -24735617#1 -24735617#0 -432248098 -626957569#1 24735611#0 24735614 -24735612#1 -24735612#0 -24699029#0 -24699031#3" />
    </vehicle>
    <vehicle id="118" depart="44.00">
        <route edges="-421121874 -25044933#1 25044929#1 -25043182#1 -25043182#0 -421121863#1 -421121863#0 421121876#1 25043183#0 25043183#1 -35631490 -431981406 -35631491#0 -97293743#1 -24735617#1 -24735617#0 -432762971 -432248099#7 -432248099#6 -432248099#5 -432248099#4 -432248099#3 -432248099#2 -24735603#1 -293256120#1" />
    </vehicle>
    <vehicle id="121" depart="45.00">
        <route edges="-25044938 421121955 1100897258 432768292#4 432768292#5 432768292#6 -25043180#1 -25043180#0 -421121863#1 -421121863#0 -421121876#0 24159814#2 535554957 25042889#0 -24405506#9 -24405506#8 -24405506#7 -24405506#6 -24405506#5 -24405506#4 25046387 -999609883#1 -999609883#0 25046412#5 25046412#6 25046412#7 854227941 -276636146#6 -276636146#5 -276636146#4 -276636146#3 -999672220" />
    </vehicle>
    <vehicle id="125" depart="47.00">
        <route edges="25042893#1 25042893#0 894591201 432248099#4 432248099#5 432248099#6 432248099#7 432762971 -432248098 24735618#0 24735618#1 24735618#2 626957566 432248097#0 432248097#1 -432248097#1" />
    </vehicle>
    <vehicle id="127" depart="48.00">
        <route edges="535910625#0 535910625#1 541024816 535566679#0 535566679#1 535566679#1-AddedOffRampEdge 314066420#1 314066420#2 25054142#0 25054142#1 25054142#2 1094268116 999609877 1094268115#0 457320396#6 652088615#0 652088615#1 652088615#1-AddedOffRampEdge 652044149 25054595#2 25054595#3 25054595#4 25054595#5 25054595#6 25054595#7 25054602#1 25054602#2 25054587#0 25054587#1 25054587#2 432770524 432807560 432777381#0 432777381#1 432777381#2 229472854 432770522 -25042912#1 -25042912#0 25042907#1" />
    </vehicle>
    <vehicle id="128" depart="48.00">
        <route edges="24699025#9 24699025#10 24405499 276638492#0 276638492#1 276638492#2 276636146#0 276636146#1 276636146#2 276636146#3 276636146#4 276636146#5 276636146#6 -854227942 854227943#0 854227943#1 1168801372 24405504#0 24405504#1 -24405507#4 24405512#0 24405512#1 24405514#0 25054216#0 1223982209" />
    </vehicle>
    <vehicle id="129" depart="49.00">
        <route edges="-24683554#0 24683554#0 24683554#1 24683556 877695144 895462378#0 895462378#1 -895462375#1 24791355#0 24791355#1 -24791355#1 -24791355#0" />
    </vehicle>
    <vehicle id="131" depart="50.00">
        <route edges="25045239#1 25045239#2 25045239#3 229472855#0 229472855#1 429529117#0 229472854 432770522 431981404#0 431981404#1 -25043183#1 -25043183#0 -421121876#1 -421121876#0 24159814#2 535554957 25042889#0 25042889#1 25042889#2 25042889#3 25042889#4 25042889#5 -107938350#6 -107938350#5 -107938350#4 -107938350#3 24405490#1 24405490#2 1205118878" />
    </vehicle>
    <vehicle id="132" depart="50.00">
        <route edges="-24405506#1 -24405506#0 24405507#0 24405507#1 24405507#2 24405507#3 24405512#0 24405512#1 24405514#0 25054216#0 25054216#1 25054228#1 24405516#0 24405516#1 25054219#0 25054219#1 -432777387 -432777386#6 -432777386#5 -432777386#4 -432777386#3 -432777386#2 -432777386#1 -25042922#1" />
    </vehicle>
    <vehicle id="133" depart="51.00">