<?xml version="1.0" encoding="UTF-8"?>

<!-- generated on 2025-05-17 23:10:10 by Eclipse SUMO duarouter Version 1.18.0
<configuration xmlns:xsi="http://www.w3.org/2001/XMLSchema-instance" xsi:noNamespaceSchemaLocation="http://sumo.dlr.de/xsd/duarouterConfiguration.xsd">

    <input>
        <net-file value="D:\TrAD-Quito\sumo\input\simon_bolivar.net.xml"/>
        <additional-files value="D:\TrAD-Quito\sumo\input\vehicles.add.xml"/>
        <route-files value="D:\TrAD-Quito\sumo\input\trips_type1_830.trips.xml"/>
    </input>

    <output>
        <output-file value="D:\TrAD-Quito\sumo\input\routes_type1_830.rou.xml"/>
    </output>

</configuration>
-->

<routes xmlns:xsi="http://www.w3.org/2001/XMLSchema-instance" xsi:noNamespaceSchemaLocation="http://sumo.dlr.de/xsd/routes_file.xsd">
    <vehicle id="roi_trip_0" type="veh_passenger" depart="0.00">
        <route edges="431981408#0 431981408#1 431981408#2 238875364#0 238875364#1 238875364#2 24683519#0 24683519#1 431994306 -80477039#1 -80477039#0 -422425537#1 -422425537#0 24683514#0 24683514#1 431827297#0 431827297#1 431827297#2 431827297#3 199885792 428326182 314066418-AddedOnRampEdge 314066418 535572607 83002986 535574528 893289558 462693003 199885791"/>
    </vehicle>
    <vehicle id="roi_trip_1" type="veh_passenger" depart="4.34">
        <route edges="24160011 535922409 431981408#0 431981408#1 431981408#2 238875364#0 238875364#1 238875364#2 24683519#0 24683519#1 431994306 431775779 431775778 431827300#0 24683535#3 24683536 948224714 -948224715 -948224713 -24791336#1 -24791336#0 -24791335#5 -24791335#4 -24791335#3 -24791335#2 -24791335#1 -24791335#0 424685850#1 535566666#1 314066421 314066421-AddedOffRampEdge 24160007#0 1205679702#0 1205679702#1 -1205679702#1"/>
    </vehicle>
    <vehicle id="roi_trip_2" type="veh_passenger" depart="8.67">
        <route edges="314066421-AddedOffRampEdge 24160020 541024817 83002985 1163917760"/>
    </vehicle>
    <vehicle id="roi_trip_3" type="veh_passenger" depart="13.01">
        <route edges="24160020 541024817 83002985 1163917760 24160008 431989326 24160009 535922410-AddedOnRampEdge"/>
    </vehicle>
    <vehicle id="roi_trip_4" type="veh_passenger" depart="17.35">
        <route edges="1205679702#1 -1205679702#1 -1205679702#0 24160007#1 24160007#2 431981408#1 431981408#2 238875364#0 238875364#1 238875364#2 24683519#0 24683519#1 431994306 -80477039#1 -80477039#0 -422425537#1 -422425537#0 24683514#0 24683514#1 431827297#0 431827297#1 431827297#2 431827297#3 314066417 895708421 431989326 24160009 535922410-AddedOnRampEdge 535922410 431981407"/>
    </vehicle>
    <vehicle id="roi_trip_5" type="veh_passenger" depart="21.69">
        <route edges="1205679702#1 -1205679702#1 -1205679702#0 24160007#1 24160007#2 431981408#1 431981408#2 238875364#0 238875364#1 238875364#2 24683519#0 24683519#1 431994306 -80477039#1 -80477039#0 -422425537#1 -422425537#0 24683514#0 24683514#1 431827297#0 431827297#1 431827297#2 431827297#3 314066417 895708421"/>
    </vehicle>
    <vehicle id="roi_trip_6" type="veh_passenger" depart="26.02">
        <route edges="1205679702#1 -1205679702#1 -1205679702#0"/>
    </vehicle>
    <vehicle id="roi_trip_7" type="veh_passenger" depart="30.36">
        <route edges="-1205679702#0 24160007#1 24160007#2 431981408#1 431981408#2 238875364#0 238875364#1 238875364#2 24683519#0 24683519#1 431994306 -80477039#1 -80477039#0 -422425537#1 -422425537#0 24683514#0 24683514#1 431827297#0 431827297#1 431827297#2 431827297#3 314066417 895708421 431989326 24160009 535922410-AddedOnRampEdge 535922410 24160011 535922409 24160010 541024817 83002985 1163917760 25042886"/>
    </vehicle>
    <vehicle id="roi_trip_8" type="veh_passenger" depart="34.70">
        <route edges="98246932 535554959#0 -854227939 -854227942 854227943#0 854227943#1 -854227944 -24405510 1080119679 24405514#2 422730660#1 535572607 83002986 535574528 893289558 462693003 199885791"/>
    </vehicle>
    <vehicle id="roi_trip_9" type="veh_passenger" depart="39.04">
        <route edges="24160009 535922410-AddedOnRampEdge 535922410 24160011 535922409 24160010 541024817 83002985 1163917760"/>
    </vehicle>
    <vehicle id="roi_trip_10" type="veh_passenger" depart="43.37">
        <route edges="535922410-AddedOnRampEdge 535922410 24160011 535922409 431981408#0 431981408#1 431981408#2 238875364#0 238875364#1 238875364#2 24683519#0 24683519#1 431994306 431775779 431775778 431827300#0 24683535#3 24683536 948224714 -948224715 -948224713 -24791336#1 -24791336#0 -24791335#5 -24791335#4 -24791335#3 -24791335#2 -24791335#1 -24791335#0 424685850#1 535566666#1 314066421 314066421-AddedOffRampEdge 24160007#0 24160007#1"/>
    </vehicle>
    <vehicle id="roi_trip_11" type="veh_passenger" depart="47.71">
        <route edges="1168109380 535922409 431981408#0 431981408#1 431981408#2 238875364#0 238875364#1 238875364#2 24683519#0 24683519#1 431994306 431775779 431775778 431827300#0 24683535#3 24683536 948224714 -948224715 -948224713 -24791336#1 -24791336#0 -24791335#5 -24791335#4 -24791335#3 -24791335#2 -24791335#1 -24791335#0 424685850#1 535566666#1 314066421 314066421-AddedOffRampEdge 24160007#0 1205679702#0 1205679702#1 -1205679702#1"/>
    </vehicle>
    <vehicle id="roi_trip_12" type="veh_passenger" depart="52.05">
        <route edges="25042886 98246952 535554959#0 -854227939 -276636146#6 -276636146#5 534900635#0 534900635#1 -24683515#2 -24683515#1 -874437282 24683513 422425537#0 422425537#1 422425537#2 80477039#1 431775779 431775778 431827300#0 24683535#3 24683536 948224714 -948224715 -948224713 -24791336#1 -24791336#0 -24791335#5 -24791335#4 -24791335#3 -24791335#2 -24791335#1 -24791335#0 424685850#1 535566666#1 314066421 314066421-AddedOffRampEdge 24160007#0"/>
    </vehicle>
    <vehicle id="roi_trip_13" type="veh_passenger" depart="56.39">
        <route edges="431989326 24160009 535922410-AddedOnRampEdge 535922410 24160011 535922409"/>
    </vehicle>
    <vehicle id="roi_trip_14" type="veh_passenger" depart="60.72">
        <route edges="535922410-AddedOnRampEdge 535922410 24160011 535922409 24160010 541024817 83002985 1163917760 24160008"/>
    </vehicle>
    <vehicle id="roi_trip_15" type="veh_passenger" depart="65.06">
        <route edges="25042886 98246952 535554959#0 -854227939 -854227942 -507058716 -25046412#6 199881960#0 1175651171 507058717#0 507058717#1 25042889#11 98246921 1168283956 535922410-AddedOnRampEdge 535922410 24160011 535922409 24160010"/>
    </vehicle>
    <vehicle id="roi_trip_16" type="veh_passenger" depart="69.40">
        <route edges="535922409 24160010 541024817 83002985 1163917760 24160008 431989326 24160009 535922410-AddedOnRampEdge 535922410 24160011"/>
    </vehicle>
    <vehicle id="roi_trip_17" type="veh_passenger" depart="73.73">
        <route edges="535922409 431981408#0 431981408#1 431981408#2 238875364#0 238875364#1 238875364#2 24683519#0 24683519#1 431994306 431775779 431775778 431827300#0 24683535#3 24683536 948224714 -948224715 -948224713 -24791336#1 -24791336#0 -24791335#5 -24791335#4 -24791335#3 -24791335#2 -24791335#1 -24791335#0 424685850#1 535566666#1 314066421 314066421-AddedOffRampEdge 24160007#0"/>
    </vehicle>
    <vehicle id="roi_trip_18" type="veh_passenger" depart="78.07">
        <route edges="1163917760 24160008 431989326 24160009 535922410-AddedOnRampEdge 535922410"/>
    </vehicle>
    <vehicle id="roi_trip_19" type="veh_passenger" depart="82.41">
        <route edges="431981407 535910625#0 -24683612#2 24405520#1 24405520#2 -24405522#1 -24405522#0 1168126740 854227946#4 -24405502#3 -24405502#2 -24405502#1 -24405502#0 893289558 462693003 238875365 1168109380 535922409 24160010 541024817 83002985 1163917760 24160008 431989326 24160009"/>
    </vehicle>
    <vehicle id="roi_trip_20" type="veh_passenger" depart="86.75">
        <route edges="24160007#0 24160007#1 24160007#2 431981408#1 431981408#2 238875364#0 238875364#1 238875364#2 24683519#0 24683519#1 431994306 431775779 431775778 431827300#0 24683535#3 24683536 948224714 -948224715 -948224713 -24791336#1 -24791336#0 -24791335#5 -24791335#4 -24791335#3 -24791335#2 -24791335#1 -24791335#0 424685850#1 535566666#1 314066421 314066421-AddedOffRampEdge"/>
    </vehicle>
    <vehicle id="roi_trip_21" type="veh_passenger" depart="91.08">
        <route edges="1205679702#1 -1205679702#1 -1205679702#0 24160007#1 24160007#2 431981408#1 431981408#2 238875364#0 238875364#1 238875364#2 24683519#0 24683519#1 431994306 -80477039#1 -80477039#0 -422425537#1 -422425537#0 24683514#0 24683514#1 431827297#0 431827297#1 431827297#2 431827297#3 199885792 428326182"/>
    </vehicle>
    <vehicle id="roi_trip_22" type="veh_passenger" depart="95.42">
        <route edges="24160007#0 1205679702#0 -1205679702#0"/>
    </vehicle>
    <vehicle id="roi_trip_23" type="veh_passenger" depart="99.76">
        <route edges="1168283956 535922410-AddedOnRampEdge 535922410 24160011 535922409 431981408#0 431981408#1 431981408#2 238875364#0 238875364#1 238875364#2 24683519#0 24683519#1 431994306 -80477039#1 -80477039#0 -422425537#1 -422425537#0 24683514#0 24683514#1 431827297#0 431827297#1 431827297#2 431827297#3 199885792 428326182"/>
    </vehicle>
    <vehicle id="roi_trip_24" type="veh_passenger" depart="104.10">
        <route edges="24160008 431989326 1168273992 1168273992-AddedOffRampEdge 314066419 314066418-AddedOnRampEdge 314066418 535572607 83002986 535574528 893289558 462693003 238875365 1168109380"/>
    </vehicle>
    <vehicle id="roi_trip_25" type="veh_passenger" depart="108.43">
        <route edges="535922410-AddedOnRampEdge 535922410 24160011 535922409 431981408#0 431981408#1 431981408#2 238875364#0 238875364#1 238875364#2 24683519#0 24683519#1 431994306 431775779 431775778 431827300#0 24683535#3 24683536 948224714 -948224715 -948224713 -24791336#1 -24791336#0 -24791335#5 -24791335#4 -24791335#3 -24791335#2 -24791335#1 -24791335#0 424685850#1 535566666#1 314066421 314066421-AddedOffRampEdge 24160007#0 1205679702#0 1205679702#1"/>
    </vehicle>
    <vehicle id="roi_trip_26" type="veh_passenger" depart="112.77">
        <route edges="431981408#0 431981408#1 431981408#2 238875364#0 238875364#1 238875364#2 24683519#0 24683519#1 431994306 -80477039#1 -80477039#0 -422425537#1 -422425537#0 24683514#0 24683514#1 431827297#0 431827297#1 431827297#2 431827297#3 314066417 895708421 431989326 24160009"/>
    </vehicle>
    <vehicle id="roi_trip_27" type="veh_passenger" depart="117.11">
        <route edges="24160008 431989326 24160009 535922410-AddedOnRampEdge 535922410 24160011 535922409 431981408#0"/>
    </vehicle>
    <vehicle id="roi_trip_28" type="veh_passenger" depart="121.45">
        <route edges="199885791 238875364#0 238875364#1 238875364#2 24683519#0 24683519#1 431994306 -80477039#1 -80477039#0 -422425537#1 -422425537#0 24683514#0 24683514#1 431827297#0 431827297#1 431827297#2 431827297#3 314066417 895708421"/>
    </vehicle>
    <vehicle id="roi_trip_29" type="veh_passenger" depart="125.78">
        <route edges="24160007#0 24160007#1 24160007#2 431981408#1 431981408#2 238875364#0 238875364#1 238875364#2 24683519#0 24683519#1 431994306 -80477039#1 -80477039#0 -422425537#1 -422425537#0 24683514#0 24683514#1 431827297#0 431827297#1 431827297#2 431827297#3 314066417 895708421 431989326 24160009 535922410-AddedOnRampEdge 535922410 24160011 535922409 431981408#0"/>
    </vehicle>
    <vehicle id="roi_trip_30" type="veh_passenger" depart="130.12">
        <route edges="98246932 535554959#0 -854227939 -276636146#6 -276636146#5 534900635#0 534900635#1 -24683515#2 -24683515#1 -24683515#0 431827298 535569424 431827297#0 431827297#1 431827297#2 431827297#3 314066417 895708421 431989326"/>
    </vehicle>
    <vehicle id="roi_trip_31" type="veh_passenger" depart="134.46">
        <route edges="24160007#1 24160007#2 431981408#1 431981408#2 238875364#0 238875364#1 238875364#2 24683519#0 24683519#1 431994306 -80477039#1 -80477039#0 -422425537#1 -422425537#0 24683514#0 24683514#1 431827297#0 431827297#1 431827297#2 431827297#3 314066417 24160012#0 24160012#1"/>
    </vehicle>
    <vehicle id="roi_trip_32" type="veh_passenger" depart="138.80">
        <route edges="431981407 535910625#0 -24683612#2 24405520#1 24405520#2 -24405522#1 -24405522#0 1168126740 854227946#4 -24405502#3 -24405502#2 -24405502#1 -24405502#0 893289558 462693003 238875365 1168109380 535922409 24160010 541024817 83002985 1163917760 24160008 431989326 1168273992 1168273992-AddedOffRampEdge"/>
    </vehicle>
    <vehicle id="roi_trip_33" type="veh_passenger" depart="143.13">
        <route edges="24160020 541024817 83002985 1163917760 24160008 431989326 24160009 535922410-AddedOnRampEdge 535922410 24160011 535922409 431981408#0 431981408#1 431981408#2 238875364#0 238875364#1 238875364#2 24683519#0 24683519#1 431994306 431775779 431775778 431827300#0 24683535#3 24683536 948224714 -948224715 -948224713 -24791336#1 -24791336#0 -24791335#5 -24791335#4 -24791335#3 -24791335#2 -24791335#1 -24791335#0 424685850#1 535566666#1 314066421 314066421-AddedOffRampEdge 24160007#0 1205679702#0 1205679702#1"/>
    </vehicle>
    <vehicle id="roi_trip_34" type="veh_passenger" depart="147.47">
        <route edges="431989326 24160009 535922410-AddedOnRampEdge 535922410 24160011 535922409 24160010 541024817 83002985 1163917760 25042886"/>
    </vehicle>
    <vehicle id="roi_trip_35" type="veh_passenger" depart="151.81">
        <route edges="535922410-AddedOnRampEdge 535922410 24160011 535922409 431981408#0 431981408#1 431981408#2 238875364#0 238875364#1 238875364#2 24683519#0 24683519#1 431994306 -80477039#1 -80477039#0 -422425537#1 -422425537#0 24683514#0 24683514#1 431827297#0 431827297#1 431827297#2 431827297#3 314066417 24160012#0 24160012#1"/>
    </vehicle>
    <vehicle id="roi_trip_36" type="veh_passenger" depart="156.14">
        <route edges="24160010 541024817 83002985 1163917760 25042886 98246952 535554959#0 -854227939 -854227942 -507058716 -25046412#6 199881960#0 1175651171 507058717#0 507058717#1 25042889#11 98246921 1168283956"/>
    </vehicle>
    <vehicle id="roi_trip_37" type="veh_passenger" depart="160.48">
        <route edges="1205679702#1 -1205679702#1 -1205679702#0 24160007#1 24160007#2 431981408#1 431981408#2 238875364#0 238875364#1 238875364#2 24683519#0 24683519#1 431994306 -80477039#1 -80477039#0 -422425537#1 -422425537#0 24683514#0 24683514#1 431827297#0 431827297#1 431827297#2 431827297#3 314066417 895708421 431989326 24160009 535922410-AddedOnRampEdge 535922410 431981407"/>
    </vehicle>
    <vehicle id="roi_trip_38" type="veh_passenger" depart="164.82">
        <route edges="-1205679702#0 24160007#1 24160007#2 431981408#1 431981408#2 238875364#0 238875364#1 238875364#2 24683519#0 24683519#1 431994306 -80477039#1 -80477039#0 -422425537#1 -422425537#0 24683514#0 24683514#1 431827297#0 431827297#1 431827297#2 431827297#3 199885792"/>
    </vehicle>
    <vehicle id="roi_trip_39" type="veh_passenger" depart="169.16">
        <route edges="428326182 314066418-AddedOnRampEdge 314066418 535572607 83002986 535574528 893289558 462693003 238875365 1168109380 535922409 431981408#0 431981408#1 431981408#2 238875364#0 238875364#1 238875364#2 24683519#0 24683519#1 431994306 431775779 431775778 431827300#0 24683535#3 24683536 948224714 -948224715 -948224713 -24791336#1 -24791336#0 -24791335#5 -24791335#4 -24791335#3 -24791335#2 -24791335#1 -24791335#0 424685850#1 535566666#1 314066421 314066421-AddedOffRampEdge 24160007#0 24160007#1"/>
    </vehicle>
    <vehicle id="roi_trip_40" type="veh_passenger" depart="173.49">
        <route edges="24160020 541024817 83002985 1163917760 24160008 431989326 24160009 535922410-AddedOnRampEdge 535922410 431981407"/>
    </vehicle>
    <vehicle id="roi_trip_41" type="veh_passenger" depart="177.83">
        <route edges="24160009 535922410-AddedOnRampEdge 535922410 24160011"/>
    </vehicle>
    <vehicle id="roi_trip_42" type="veh_passenger" depart="182.17">
        <route edges="-1205679702#1 -1205679702#0"/>
    </vehicle>
    <vehicle id="roi_trip_43" type="veh_passenger" depart="186.51">
        <route edges="24160007#2 431981408#1 431981408#2 238875364#0 238875364#1 238875364#2 24683519#0 24683519#1 431994306 -80477039#1 -80477039#0 -422425537#1 -422425537#0 24683514#0 24683514#1 431827297#0 431827297#1 431827297#2 431827297#3 314066417 24160012#0 24160012#1"/>
    </vehicle>
    <vehicle id="roi_trip_44" type="veh_passenger" depart="190.84">
        <route edges="24160020 541024817 83002985 1163917760 24160008 431989326 24160009 535922410-AddedOnRampEdge 535922410 24160011 535922409 431981408#0 431981408#1 431981408#2 238875364#0 238875364#1 238875364#2 24683519#0 24683519#1 431994306 431775779 431775778 431827300#0 24683535#3 24683536 948224714 -948224715 -948224713 -24791336#1 -24791336#0 -24791335#5 -24791335#4 -24791335#3 -24791335#2 -24791335#1 -24791335#0 424685850#1 535566666#1 314066421 314066421-AddedOffRampEdge 24160007#0 1205679702#0 1205679702#1 -1205679702#1"/>
    </vehicle>
    <vehicle id="roi_trip_45" type="veh_passenger" depart="195.18">
        <route edges="-1205679702#1 -1205679702#0 24160007#1 24160007#2 431981408#1 431981408#2 238875364#0 238875364#1 238875364#2 24683519#0 24683519#1 431994306 -80477039#1 -80477039#0 -422425537#1 -422425537#0 24683514#0 24683514#1 431827297#0 431827297#1 431827297#2 431827297#3 199885792 428326182 314066418-AddedOnRampEdge 314066418 535572607 83002986 535574528 893289558 462693003 238875365 1168109380"/>
    </vehicle>
    <vehicle id="roi_trip_46" type="veh_passenger" depart="199.52">
        <route edges="24160007#2 431981408#1 431981408#2 238875364#0 238875364#1 238875364#2 24683519#0 24683519#1 431994306 431775779 431775778 431827300#0 24683535#3 24683536 948224714 -948224715 -948224713 -24791336#1 -24791336#0 -24791335#5 -24791335#4 -24791335#3 -24791335#2 -24791335#1 -24791335#0 424685850#1 535566666#1 314066421 314066421-AddedOffRampEdge 24160007#0 1205679702#0 -1205679702#0"/>
    </vehicle>
    <vehicle id="roi_trip_47" type="veh_passenger" depart="203.86">
        <route edges="1168273992-AddedOffRampEdge 314066419 314066418-AddedOnRampEdge 314066418 535572607 83002986 535574528 893289558 462693003 238875365 1168109380 535922409 24160010 541024817 83002985 1163917760 24160008 431989326"/>
    </vehicle>
    <vehicle id="roi_trip_48" type="veh_passenger" depart="208.19">
        <route edges="535922409 431981408#0 431981408#1 431981408#2 238875364#0 238875364#1 238875364#2 24683519#0 24683519#1 431994306 -80477039#1 -80477039#0 -422425537#1 -422425537#0 24683514#0 24683514#1 431827297#0 431827297#1 431827297#2 431827297#3 199885792 428326182"/>
    </vehicle>
    <vehicle id="roi_trip_49" type="veh_passenger" depart="212.53">
        <route edges="1168283956 535922410-AddedOnRampEdge 535922410 24160011 535922409 431981408#0 431981408#1 431981408#2 238875364#0 238875364#1 238875364#2 24683519#0 24683519#1 431994306 431775779 431775778 431827300#0 24683535#3 24683536 948224714 -948224715 -948224713 -24791336#1 -24791336#0 -24791335#5 -24791335#4 -24791335#3 -24791335#2 -24791335#1 -24791335#0 424685850#1 535566666#1 314066421 314066421-AddedOffRampEdge 24160020"/>
    </vehicle>
    <vehicle id="roi_trip_50" type="veh_passenger" depart="216.87">
        <route edges="1168273992-AddedOffRampEdge 314066419 314066418-AddedOnRampEdge 314066418 535572607 83002986 535574528 893289558 462693003 238875365 1168109380 535922409 431981408#0 431981408#1 431981408#2 238875364#0 238875364#1 238875364#2 24683519#0 24683519#1 431994306 -80477039#1 -80477039#0 -422425537#1 -422425537#0 24683514#0 24683514#1 431827297#0 431827297#1 431827297#2 431827297#3 199885792 428326182"/>
    </vehicle>
    <vehicle id="roi_trip_51" type="veh_passenger" depart="221.20">
        <route edges="314066421-AddedOffRampEdge 24160007#0 1205679702#0"/>
    </vehicle>
    <vehicle id="roi_trip_52" type="veh_passenger" depart="225.54">
        <route edges="199885792 428326182 314066418-AddedOnRampEdge 314066418 535572607 83002986 535574528 893289558 462693003 238875365 1168109380 535922409 24160010 541024817 83002985 1163917760 24160008 431989326"/>
    </vehicle>
    <vehicle id="roi_trip_53" type="veh_passenger" depart="229.88">
        <route edges="428326182 314066418-AddedOnRampEdge 314066418 535572607 83002986 535574528 893289558 462693003 238875365 1168109380 535922409 24160010 541024817 83002985 1163917760 24160008 431989326 24160009 535922410-AddedOnRampEdge 535922410 431981407"/>
    </vehicle>
    <vehicle id="roi_trip_54" type="veh_passenger" depart="234.22">
        <route edges="24160020 541024817 83002985 1163917760"/>
    </vehicle>
    <vehicle id="roi_trip_55" type="veh_passenger" depart="238.55">
        <route edges="535922410-AddedOnRampEdge 535922410 24160011 535922409 431981408#0 431981408#1 431981408#2 238875364#0 238875364#1 238875364#2 24683519#0 24683519#1 431994306 431775779 431775778 431827300#0 24683535#3 24683536 948224714 -948224715 -948224713 -24791336#1 -24791336#0 -24791335#5 -24791335#4 -24791335#3 -24791335#2 -24791335#1 -24791335#0 424685850#1 535566666#1 314066421 314066421-AddedOffRampEdge 24160007#0 1205679702#0 -1205679702#0"/>
    </vehicle>
    <vehicle id="roi_trip_56" type="veh_passenger" depart="242.89">
        <route edges="24160011 535922409 431981408#0 431981408#1 431981408#2 238875364#0 238875364#1 238875364#2 24683519#0 24683519#1 431994306 431775779 431775778 431827300#0 24683535#3 24683536 948224714 -948224715 -948224713 -24791336#1 -24791336#0 -24791335#5 -24791335#4 -24791335#3 -24791335#2 -24791335#1 -24791335#0 424685850#1 535566666#1 314066421 314066421-AddedOffRampEdge 24160007#0"/>
    </vehicle>
    <vehicle id="roi_trip_57" type="veh_passenger" depart="247.23">
        <route edges="98246932 535554959#0 -854227939 -854227942 854227943#0 854227943#1 -854227944 -24405510 1080119679 24405514#2 422730660#1 535572607 83002986 535574528 893289558 462693003 199885791"/>
    </vehicle>
    <vehicle id="roi_trip_58" type="veh_passenger" depart="251.57">
        <route edges="1163917760 24160008 431989326 24160009 535922410-AddedOnRampEdge 535922410 24160011 535922409 431981408#0 431981408#1 431981408#2 238875364#0 238875364#1 238875364#2 24683519#0 24683519#1 431994306 431775779 431775778 431827300#0 24683535#3 24683536 948224714 -948224715 -948224713 -24791336#1 -24791336#0 -24791335#5 -24791335#4 -24791335#3 -24791335#2 -24791335#1 -24791335#0 424685850#1 535566666#1 314066421 314066421-AddedOffRampEdge"/>
    </vehicle>
    <vehicle id="roi_trip_59" type="veh_passenger" depart="255.90">
        <route edges="895708421 431989326 24160009 535922410-AddedOnRampEdge 535922410 24160011 535922409 431981408#0 431981408#1 431981408#2 238875364#0 238875364#1 238875364#2 24683519#0 24683519#1 431994306 -80477039#1 -80477039#0 -422425537#1 -422425537#0 24683514#0 24683514#1 431827297#0 431827297#1 431827297#2 431827297#3 199885792 428326182"/>
    </vehicle>
    <vehicle id="roi_trip_60" type="veh_passenger" depart="260.24">
        <route edges="431981408#0 431981408#1 431981408#2 238875364#0 238875364#1 238875364#2 24683519#0 24683519#1 431994306 -80477039#1 -80477039#0 -422425537#1 -422425537#0 24683514#0 24683514#1 431827297#0 431827297#1 431827297#2 431827297#3 314066417 895708421 431989326 24160009 535922410-AddedOnRampEdge 535922410 24160011 535922409 24160010"/>
    </vehicle>
    <vehicle id="roi_trip_61" type="veh_passenger" depart="264.58">
        <route edges="199885792 428326182 314066418-AddedOnRampEdge 314066418 535572607 83002986 535574528 893289558 462693003 238875365 1168109380 535922409 431981408#0 431981408#1 431981408#2 238875364#0 238875364#1 238875364#2 24683519#0 24683519#1 431994306 431775779 431775778 431827300#0 24683535#3 24683536 948224714 -948224715 -948224713 -24791336#1 -24791336#0 -24791335#5 -24791335#4 -24791335#3 -24791335#2 -24791335#1 -24791335#0 424685850#1 535566666#1 314066421 314066421-AddedOffRampEdge 24160020"/>
    </vehicle>
    <vehicle id="roi_trip_62" type="veh_passenger" depart="268.92">
        <route edges="431989326 24160009 535922410-AddedOnRampEdge 535922410 24160011 535922409 24160010 541024817 83002985 1163917760"/>
    </vehicle>
    <vehicle id="roi_trip_63" type="veh_passenger" depart="273.25">
        <route edges="535922410-AddedOnRampEdge 535922410 24160011 535922409 431981408#0 431981408#1 431981408#2 238875364#0 238875364#1 238875364#2 24683519#0 24683519#1 431994306 431775779 431775778 431827300#0 24683535#3 24683536 948224714 -948224715 -948224713 -24791336#1 -24791336#0 -24791335#5 -24791335#4 -24791335#3 -24791335#2 -24791335#1 -24791335#0 424685850#1 535566666#1 314066421 314066421-AddedOffRampEdge 24160007#0 1205679702#0"/>
    </vehicle>
    <vehicle id="roi_trip_64" type="veh_passenger" depart="277.59">
        <route edges="535922409 431981408#0 431981408#1 431981408#2 238875364#0 238875364#1 238875364#2 24683519#0 24683519#1 431994306 -80477039#1 -80477039#0 -422425537#1 -422425537#0 24683514#0 24683514#1 431827297#0 431827297#1 431827297#2 431827297#3 314066417 895708421"/>
    </vehicle>
    <vehicle id="roi_trip_65" type="veh_passenger" depart="281.93">
        <route edges="431989326 24160009 535922410-AddedOnRampEdge 535922410 24160011 535922409 431981408#0 431981408#1 431981408#2 238875364#0 238875364#1 238875364#2 24683519#0 24683519#1 431994306 431775779 431775778 431827300#0 24683535#3 24683536 948224714 -948224715 -948224713 -24791336#1 -24791336#0 -24791335#5 -24791335#4 -24791335#3 -24791335#2 -24791335#1 -24791335#0 424685850#1 535566666#1 314066421 314066421-AddedOffRampEdge 24160007#0 24160007#1"/>
    </vehicle>
    <vehicle id="roi_trip_66" type="veh_passenger" depart="286.27">
        <route edges="24160007#1 24160007#2 431981408#1 431981408#2 238875364#0 238875364#1 238875364#2 24683519#0 24683519#1 431994306 -80477039#1 -80477039#0 -422425537#1 -422425537#0 24683514#0 24683514#1 431827297#0 431827297#1 431827297#2 431827297#3 314066417 895708421"/>
    </vehicle>
    <vehicle id="roi_trip_67" type="veh_passenger" depart="290.60">
        <route edges="431981407 535910625#0 -24683612#2 24405520#1 24405520#2 -24405522#1 -24405522#0 1168126740 854227946#4 -24405502#3 -24405502#2 -24405502#1 -24405502#0 893289558 462693003 238875365 1168109380 535922409 24160010 541024817 83002985 1163917760 25042886 98246952 535554959#0 -854227939 -854227942 -507058716 -25046412#6 199881960#0 1175651171 507058717#0 507058717#1 25042889#11 98246921 1168283956"/>
    </vehicle>
    <vehicle id="roi_trip_68" type="veh_passenger" depart="294.94">
        <route edges="199885792 428326182"/>
    </vehicle>
    <vehicle id="roi_trip_69" type="veh_passenger" depart="299.28">
        <route edges="1163917760 25042886 98246952 535554959#0 -854227939 -276636146#6 -276636146#5 534900635#0 534900635#1 -24683515#2 -24683515#1 -24683515#0 431827298 535569424 431827297#0 431827297#1 431827297#2 431827297#3 314066417 895708421"/>
    </vehicle>
    <vehicle id="roi_trip_70" type="veh_passenger" depart="303.61">
        <route edges="24160008 431989326 24160009 535922410-AddedOnRampEdge 535922410 24160011 535922409"/>
    </vehicle>
    <vehicle id="roi_trip_71" type="veh_passenger" depart="307.95">
        <route edges="24160010 541024817 83002985 1163917760 25042886 98246952 535554959#0 -854227939 -276636146#6 -276636146#5 534900635#0 534900635#1 -24683515#2 -24683515#1 -24683515#0 431827298 535569424 431827297#0 431827297#1 431827297#2 431827297#3 199885792"/>
    </vehicle>
    <vehicle id="roi_trip_72" type="veh_passenger" depart="312.29">
        <route edges="1163917760 25042886 98246952 535554959#0 -854227939 -276636146#6 -276636146#5 534900635#0 534900635#1 -24683515#2 -24683515#1 -24683515#0 431827298 535569424 431827297#0 431827297#1 431827297#2 431827297#3 199885792"/>
    </vehicle>
    <vehicle id="roi_trip_73" type="veh_passenger" depart="316.63">
        <route edges="535922410-AddedOnRampEdge 535922410 24160011 535922409 24160010 541024817 83002985 1163917760 25042886 98246952 535554959#0 -854227939 -854227942 -507058716 -25046412#6 199881960#0 1175651171 507058717#0 507058717#1 25042889#11 98246921 1168283956"/>
    </vehicle>
    <vehicle id="roi_trip_74" type="veh_passenger" depart="320.96">
        <route edges="24160012#1 98246952 535554959#0 -854227939 -854227942 -507058716 -25046412#6 199881960#0 1175651171 507058717#0 507058717#1 25042889#11 98246921 1168283956 535922410-AddedOnRampEdge 535922410 431981407"/>
    </vehicle>
    <vehicle id="roi_trip_75" type="veh_passenger" depart="325.30">
        <route edges="24160008 431989326 24160009 535922410-AddedOnRampEdge 535922410 24160011 535922409 431981408#0 431981408#1 431981408#2 238875364#0 238875364#1 238875364#2 24683519#0 24683519#1 431994306 431775779 431775778 431827300#0 24683535#3 24683536 948224714 -948224715 -948224713 -24791336#1 -24791336#0 -24791335#5 -24791335#4 -24791335#3 -24791335#2 -24791335#1 -24791335#0 424685850#1 535566666#1 314066421 314066421-AddedOffRampEdge 24160007#0 1205679702#0 1205679702#1 -1205679702#1"/>
    </vehicle>
    <vehicle id="roi_trip_76" type="veh_passenger" depart="329.64">
        <route edges="1168283956 535922410-AddedOnRampEdge 535922410"/>
    </vehicle>
    <vehicle id="roi_trip_77" type="veh_passenger" depart="333.98">
        <route edges="431989326 24160009 535922410-AddedOnRampEdge 535922410 24160011 535922409 431981408#0"/>
    </vehicle>
    <vehicle id="roi_trip_78" type="veh_passenger" depart="338.31">
        <route edges="428326182 314066418-AddedOnRampEdge 314066418 535572607 83002986 535574528 893289558 462693003 238875365 1168109380 535922409 431981408#0 431981408#1 431981408#2 238875364#0 238875364#1 238875364#2 24683519#0 24683519#1 431994306 431775779 431775778 431827300#0 24683535#3 24683536 948224714 -948224715 -948224713 -24791336#1 -24791336#0 -24791335#5 -24791335#4 -24791335#3 -24791335#2 -24791335#1 -24791335#0 424685850#1 535566666#1 314066421 314066421-AddedOffRampEdge 24160007#0 1205679702#0"/>
    </vehicle>