<?xml version="1.0" encoding="UTF-8"?>

<!-- generated on 2025-05-18 00:49:45 by Eclipse SUMO duarouter Version 1.18.0
<configuration xmlns:xsi="http://www.w3.org/2001/XMLSchema-instance" xsi:noNamespaceSchemaLocation="http://sumo.dlr.de/xsd/duarouterConfiguration.xsd">

    <input>
        <net-file value="D:\TrAD-Quito\sumo\input\simon_bolivar.net.xml"/>
        <additional-files value="D:\TrAD-Quito\sumo\input\vehicles.add.xml"/>
        <route-files value="D:\TrAD-Quito\sumo\input\trips_type2_1000.trips.xml"/>
    </input>

    <output>
        <output-file value="D:\TrAD-Quito\sumo\input\routes_type2_1000.rou.xml"/>
    </output>

</configuration>
-->

<routes xmlns:xsi="http://www.w3.org/2001/XMLSchema-instance" xsi:noNamespaceSchemaLocation="http://sumo.dlr.de/xsd/routes_file.xsd">
    <vehicle id="1" depart="3.28">
        <route edges="-25046393#0 25046391#1 1168305905#2 24405507#0 24405507#1 24405507#2 24405507#3 24405512#0 24405512#1 24405514#0 25054216#0 25054216#1 25054228#1 24405516#0 -25054223#1 -376543476#1 -25054221#0"/>
    </vehicle>
    <vehicle id="2" depart="6.57">
        <route edges="25046423 1168287296#2 1168287296#3 24405490#0 -107938350#2 -107938350#1 -107938350#0 25042889#9 25042889#9-AddedOffRampEdge 199881969#0 199881969#1 -1175651171 -199881960#0 -25046412#5 999609883#0 999609883#1 -25046387 24405506#4 24405506#5 24405506#6 24405506#7 24405506#8 -376543466#2 -376543466#1 -376543466#0 -98231048#2 -98231048#1 -98231048#0 -897097401#1 -897097401#0 -897097402#1 -897097402#0 -25042905#2 -25042905#1 -25042905#0 35631490 -25043183#1 -25043183#0 25042891#0 25042891#1 25042891#2"/>
    </vehicle>
    <vehicle id="3" depart="9.85">
        <route edges="432234379#1 -432234379#1 -432234379#0 -24735615 24699029#0 24699029#1 24699029#2 24699029#3 24699030#0 24699030#1 24699030#2 292747017#0 292747017#1 1168799438#0 1168799438#1 276638492#0 276638492#1 276638492#2 276636146#0 276636146#1 276636146#2 276636146#3 276636146#4 534900635#0 534900635#1 -24683515#2 -24683515#1 -874437282 24683513 422425537#0 422425537#1 422425537#2 80477039#1 431775779 431775778 431827300#0 24683535#3 24683535#4 24683535#5 -24683535#5"/>
    </vehicle>
    <vehicle id="4" depart="13.14">
        <route edges="-432770524 432770524 432807560 432777381#0 432777381#1 432777381#2 229472854 432770522 431981404#0 431981404#1 -25043183#1 -25043183#0 -421121876#1 -421121876#0 24159814#2 535554957 25042889#0 -24405506#9 -24405506#8 -24405506#7 -24405506#6 -24405506#5 -24405506#4 25046387 -999609883#1 -999609883#0 25046412#5 25046412#6 25046412#7 854227941 -276636146#6 -276636146#5 534900635#0 534900635#1 -24683515#2 -24683515#1 -24683515#0 431827298 535569424 431827297#0 431827297#1 -1190782923"/>
    </vehicle>
    <vehicle id="5" depart="16.42">
        <route edges="-24791355#1 -24791355#0 895462375#1 -895462378#1 -895462378#0 24683557#0 31896239#0 31896239#1 1205693236"/>
    </vehicle>
    <vehicle id="6" depart="19.71">
        <route edges="-1168541555#0 -24783924#10 -24783924#9 -24783924#8 -24783924#7 -24783924#6 -24783924#5 -24783924#4 -24783924#3 -24783924#2 -27347564#1 -27347564#0 -854227948 457320396#0 457320396#1 457320396#2 457320396#3 457320396#4 457320396#5 457320396#6 457320396#7 854227946#0 854227946#1 854227946#2 854227946#3 854227946#4 -24405502#3 -24405502#2 -24405502#1 -24405502#0 893289558 462693003 238875365 1168109380 535922409 24160010 541024817 83002985 1163917760 25042886 98246952 535554959#0 -854227939 -854227942 854227943#0 854227943#1 1168801372 24405504#0 25046397#0 -25046396#1"/>
    </vehicle>
    <vehicle id="7" depart="22.99">
        <route edges="24735608#0 -24735608#0 -24735617#0 -432248098 -626957569#1 -626957569#0 -24735606 -432248096 -1168287299#1 -1168287299#0 -432248094 -276638494#1 -276638494#0 292747017#0 292747017#1 1168799438#0 1168799438#1 276638492#0 24405501#1"/>
    </vehicle>
    <vehicle id="8" depart="26.28">
        <route edges="-24791575#3 -24791575#2 -24791575#1 -24791575#0 -24791352#1 -24791352#0 -31896239#1 -31896239#0 -24683557#0 -877695144 -24791386 -24683554#1 -24683554#0 -24683527#3 -24683527#2 -24683527#1 -24683527#0 24683531 431827302#0 431827302#1 431994306 -80477039#1 -80477039#0 -422425537#1 -422425537#0 -24683513 874437282 24683515#1 24683515#2 24683515#3 24683515#4 -24683560#8 -24683560#7 -24683560#6 -24683560#5 -24683560#4 -24683560#3 -24683560#2 24683560#2"/>
    </vehicle>
    <vehicle id="9" depart="29.56">
        <route edges="302965727#12 302965727#13 302965727#14 637275760 -24791339#2 -24791339#1 -24791339#0 -1168279796 -24791335#6 24791336#0 24791336#1 948224713 948224715 -948224714 -24683536 -24683535#3 -431827300#0 -431775778 -431775779 -80477039#1 -80477039#0 -422425537#1 -422425537#0 24683514#0 24683514#1 431827297#0 431827297#1 431827297#2 431827297#3 199885792 428326182 314066418-AddedOnRampEdge 314066418 535572607 535572605#0 535572605#1 535566694#0 25054595#0 25054595#1 25054595#2 25054595#3 25054595#4 25054595#5 25054595#6 25054595#7 199568036#0 -25054585#4 -432807559#2 -432807559#1 -432807559#0 -432807557 -25042906#7 -25042906#6 -25042906#5 -25042906#4 -25042906#3 -1094251931 -1094251932"/>
    </vehicle>
    <vehicle id="10" depart="32.84">
        <route edges="293256120#3 -24699018#0 24699019#1 -432248099#2 -432248099#1 -432248099#0 -429690524#1 -429690524#0 24735605 98246944#19 98246944#19-AddedOffRampEdge 535549123#0 535549123#1 25042894 1168311253#0 1168311253#1 1168311253#2 1168311253#3 376543461 98231048#1 25042911#0 25042911#1 -25042920#3 -25042920#2 25042918#1 432777386#0 25042922#2 25042922#3"/>
    </vehicle>
    <vehicle id="11" depart="36.13">
        <route edges="-293255544#0 -431827306#4 -431827306#3 -431827306#2 -431827306#1 -431827306#0 431827307#0 431827307#1 24683531 431827302#0 431827302#1 431994306 -80477039#1 -80477039#0 -422425537#1 -422425537#0 24683514#0 24683514#1 431827297#0 431827297#1 431827297#2 431827297#3 199885792 428326182 314066418-AddedOnRampEdge 314066418 535572607 535572605#0 535572605#1 535566694#0 25054595#0 25054595#1 25054595#2 25054595#3 25054595#4 25054595#5 25054595#6 25054595#7 25054602#1 25054602#2 25054587#0 25054587#1 25054587#2 432770524 432807560 432777381#0 432777381#1 432777381#2 229472854 432770522 431981404#0 431981404#1 -25043183#1 -25043183#0 25042891#0 25042891#1 25042891#2 25042891#3 -25111441#2 -25111441#1 -25111445#3 -25111445#2 -25111445#1 -25035600#0"/>
    </vehicle>
    <vehicle id="12" depart="39.41">
        <route edges="854227946#0 854227946#1 854227946#2 854227946#3 854227946#4 -24405502#3 -24405502#2 -24405502#1 -24405502#0 893289558 462693003 238875365 1168109380 535922409 431981408#0 431981408#1 431981408#2 238875364#0 238875364#1 238875364#2 24683519#0 24683519#1 -431827302#1 -431827302#0 -24683531 -431827307#1 -431827307#0 431827306#0 431827306#1 431827306#2 -431827306#2"/>
    </vehicle>
    <vehicle id="13" depart="42.70">
        <route edges="-186530820#1 186530820#1 24683528 -293255544#3 -293255544#2 -293255544#1 -293255544#0 -431827306#4 -431827306#3 -431827306#2 -431827306#1 -431827306#0 431827307#0 431827307#1 24683531 431827302#0 431827302#1 431994306 -80477039#1 -80477039#0 -422425537#1 -422425537#0 -24683513 874437282 24683515#1 24683515#2 24683515#3 24683515#4 -24683560#8 -24683560#7 -24683560#6 -24683560#5 -24683560#4"/>
    </vehicle>
    <vehicle id="14" depart="45.98">
        <route edges="376539778#1 -1094541188#0 -376539778#0 24699039#1 -293255909#2 -293255909#1 -293255909#0 107938377#0 107938377#1 107938377#2 107938377#3 -24699027#9 -24699027#8 -24699027#7 -24699027#6 24699027#6"/>
    </vehicle>
    <vehicle id="15" depart="49.27">
        <route edges="293256863 -24405489#0 -107938350#4 -107938350#3 -107938350#2 -107938350#1 -107938350#0 25042889#9 25042889#9-AddedOffRampEdge 199881969#0 199881969#1 -1175651171 -199881960#0 -25046412#5 -24405511#3 -25046400#1 25046400#1"/>
    </vehicle>
    <vehicle id="16" depart="52.55">
        <route edges="1205662257#0 -1205662257#0 1205662256#2 -24783924#12 -24783924#11 -24783924#10 -24783924#9 -24783924#8 -24783924#7 -24783924#6 -24783924#5 -24783924#4 -24783924#3 -24783924#2 -27347564#1 -27347564#0 -854227948 457320396#0 457320396#1 457320396#2 457320396#3 457320396#4 457320396#5 457320396#6 457320396#7 854227946#0 854227946#1 854227946#2 854227946#3 854227946#4 -24405502#3 -24405502#2 -24405502#1 -24405502#0 893289558 462693003 238875365 1168109380 535922409 24160010 541024817 83002985 1163917760 25042886 98246952 535554959#0 -854227939 -276636146#6 -276636146#5 534900635#0 534900635#1 24683515#3 894591169"/>
    </vehicle>
    <vehicle id="17" depart="55.83">
        <route edges="-376543472#0 432777386#4 432777386#5 432777386#6 432777387 -25054219#1 -25054219#0 -24405516#1 -24405516#0 -25054228#1 -25054228#0 -25054216#0 -24405514#0 24405513 -24405507#5 -24405507#4 -24405507#3 24405507#3"/>
    </vehicle>
    <vehicle id="18" depart="59.12">
        <route edges="337312509#0 -25043787 -432234379#1 -432234379#0 -24735615 24699029#0 24699029#1 24699029#2 24699029#3 24699030#0 24699030#1 24699030#2 292747017#0 292747017#1 1168799438#0 1168799438#1 276638492#0 276638492#1 276638492#2 293255910#0 293255910#1 -24699045#6 -24699045#5 24699045#5"/>
    </vehicle>
    <vehicle id="19" depart="62.40">
        <route edges="420904972#3 -420904972#3 24683540#0 24683540#1 24683540#2"/>
    </vehicle>
    <vehicle id="20" depart="65.69">
        <route edges="25043045#0 25043045#1 -25043045#1 -25043045#0 -25043044#0 -24405506#5 -24405506#4 25046387 -999609883#1 -999609883#0 25046412#5 25046412#6 25046412#7 854227941 -276636146#6 -276636146#5 -276636146#4 -1219475773"/>
    </vehicle>
    <vehicle id="21" depart="68.97">
        <route edges="-25042891#3 -25042891#2 -25042891#1 -25042891#0 -421121876#1 -421121876#0 24159814#2 535554957 25042889#0 -24405506#9 -24405506#8 -24405506#7 -24405506#6 -24405506#5 -24405506#4 25046387 -999609883#1 -999609883#0 25046412#5 199881960#0 1175651171 507058717#0 507058717#1 25042889#11 423997744 541024816 535566679#0 535566679#1 535566679#1-AddedOffRampEdge 314066420#1 314066420#2 314066420#3 535910621#1 535910621#1-AddedOffRampEdge 535910621#2 1087552159 24783924#0 -758831775#1 -758831775#0 334561591#0 334561591#1 334561591#2 334561591#3 334561591#4 334561591#5 -334561891#1 -334561890"/>
    </vehicle>
    <vehicle id="22" depart="72.26">
        <route edges="-1205693236 -31896239#1 -31896239#0 -24683557#0 -877695144 -24791386 -24683554#1 -24683554#0 -24683527#3 -24683527#2 -24683527#1 -24683527#0 24683531 431827302#0 431827302#1 431994306 -80477039#1 -80477039#0 -422425537#1 -422425537#0 24683514#0 24683514#1 431827297#0 431827297#1 431827297#2 431827297#3 199885792 428326182 314066418-AddedOnRampEdge 314066418 535572607 535572605#0 535572605#1 535566694#0 25054595#0 25054595#1 25054595#2 25054595#3 25054595#4 25054595#5 25054595#6 -25054590#2 -25054592#0 -25054591#2 -25054591#1 -25054591#0"/>
    </vehicle>
    <vehicle id="23" depart="75.54">
        <route edges="-234800473#1 24699018#1 -24735616#1 -626957568 626440000 24735618#2 626957566 24699023 -432248096 -1168287299#1 -1168287299#0 -432248094 -276638494#1 -276638494#0 292747017#0 292747017#1 1168799438#0 1168799438#1 276638492#0 276638492#1 276638492#2 276636146#0 276636146#1 276636146#2 276636146#3 276636146#4 534900635#0 534900635#1 -24683515#2 -24683515#1 -874437282 24683513 422425537#0 422425537#1 422425537#2 80477039#1 431775779 431775778 431827300#0 24683535#3 24683536 948224714 -948224715 -948224713 -24791336#1 -24791336#0 24791335#6 1168279796 24791339#0 24791339#1 24791339#2 -637275760 -302965727#14 -302965727#13 -302965727#12 -302965727#11 -302965727#10 -302965727#9"/>
    </vehicle>
    <vehicle id="25" depart="82.11">
        <route edges="-376539199 376539199 24699025#8 24699032#0 292747017#1 1168799438#0 1168799438#1 276638492#0 276638492#1 276638492#2 276636146#0 276636146#1 276636146#2 276636146#3 276636146#4 276636146#5 276636146#6 -854227942 -507058716 -25046412#6 -25046412#5 999609883#0 999609883#1 -25046387 24405506#4 24405506#5 24405506#6 24405506#7 25043042 25042889#2 25042889#3 25042889#4 25042889#5 25042889#6 -429531573#1 1201838048 -25046433#0"/>
    </vehicle>
    <vehicle id="26" depart="85.39">
        <route edges="-25044932 -25044928#2 -25044928#1 -25044928#0 -421121863#0 -421121876#0 24159814#2 535554957 25042889#0 -24405506#9 -24405506#8 -24405506#7 -24405506#6 -24405506#5 -24405506#4 25046387 -999609883#1 -999609883#0 25046412#5 199881960#0 1175651171 507058717#0 507058717#1 25042889#11 98246921 1168283956 535922410-AddedOnRampEdge 535922410 24160011 535922409 431981408#0 431981408#1 431981408#2 238875364#0 238875364#1 238875364#2 24683519#0 24683519#1 431994306 431775779 431775778 431827300#0 24683535#3 24683536 948224714 -948224715 -948224713 -24791336#1 -24791336#0 24791335#6 1168279796 24791339#0 24791339#1 24791339#2 -637275760 -302965727#14 -302965727#13 -754427033 637275761#0"/>
    </vehicle>
    <vehicle id="27" depart="88.68">
        <route edges="24735605 98246944#19 98246944#19-AddedOffRampEdge 535549123#0 535549123#1 535549123#2 65423591#1 895454005 25042890 97293743#0 -24735617#1 -24735617#0 -432248098 -626957569#1 -626957569#0 -24735606 -432248096 -1168287299#1 -1168287299#0 -432248094 -276638494#1 -276638494#0 292747017#0 24699032#1"/>
    </vehicle>
    <vehicle id="28" depart="91.96">
        <route edges="-24699039#0 24699039#0 24699039#1 -293255909#2 -293255909#1 -293255909#0 -293255910#1 -293255910#0 276636146#0 276636146#1 276636146#2 276636146#3 276636146#4 276636146#5 276636146#6 -854227942 854227943#0 854227943#1 1168801372 24405504#0 25046397#0 25046397#1 25046398#1"/>
    </vehicle>
    <vehicle id="29" depart="95.25">
        <route edges="-24699029#1 24699029#1 24699029#2 24699029#3 24699030#0 24699030#1 24699030#2 292747017#0 292747017#1 1168799438#0 1168799438#1 276638492#0 276638492#1 276638492#2 276636146#0 276636146#1 276636146#2 276636146#3 276636146#4 534900635#0 534900635#1 -24683515#2 -24683515#1 -874437282 24683513 422425537#0 422425537#1 422425537#2 80477039#1 -80477039#1 -80477039#0"/>
    </vehicle>
    <vehicle id="30" depart="98.53">
        <route edges="98246944#17 429690523 429690524#0 429690524#1 432248099#0 432248099#1 432248099#2 432248099#3 432248099#4 432248099#5 432248099#6 432248099#7 432762971 -432248098 24735618#0 24735618#1"/>
    </vehicle>
    <vehicle id="31" depart="101.82">
        <route edges="199881960#2 -199881960#2 -199881960#1 -199881960#0 -25046412#5 999609883#0 999609883#1 -25046387 24405506#4 24405506#5 24405506#6 24405506#7 24405506#8 -376543466#2 -376543466#1 -376543466#0 -98231048#2 -98231048#1 -98231048#0 -897097401#1 -897097401#0 -897097402#1 -897097402#0 -25042905#2 25042906#0"/>
    </vehicle>
    <vehicle id="32" depart="105.10">
        <route edges="376539197 24699025#5 24699025#6 24699025#7 24699025#8 24699032#0 292747017#1 24405494#0 24405494#1 98246944#10 98246944#11 98246944#12 98246944#13 98246944#13-AddedOffRampEdge 98246944#14 98246944#15 98246944#16 98246944#17 98246944#18 98246944#19 98246944#19-AddedOffRampEdge 535549123#0 535549123#1 535549123#2 65423591#1 895454005 25042890 97293743#0 97293743#1 35631491#0 35631491#1 35631490 -431981404#1 -431981404#0 -432770522 -229472854 -429529117#0 -229472855#1 -229472855#0 -25045239#3 -25045239#2 25054869 25054870#2"/>
    </vehicle>
    <vehicle id="33" depart="108.38">
        <route edges="-25042897 1168311253#3 376543461 98231048#1 98231048#2 376543466#0 376543466#1 376543466#2 -24405506#8 -24405506#7 -24405506#6 -24405506#5 -24405506#4 25046387 -999609883#1 -999609883#0 25046412#5 25046412#6 25046412#7 854227941 854227939 535554959#1 98246944#1 98246944#2 98246944#3 98246944#4 98246944#5 98246944#6 98246944#7 98246944#8 -1201844353"/>
    </vehicle>
    <vehicle id="34" depart="111.67">
        <route edges="-25054593 -432770526#2 -432770526#1 -432770526#0 -376545741#1 -376545741#0 -25054584#1 -25054584#0 432770524 432807560 432777381#0 432777381#1 432777381#2 229472854 432770522 431981404#0 431981404#1 -25043183#1 -25043183#0 -421121876#1 -421121876#0 24159814#2 535554957 25042889#0 -24405506#9 -24405506#8 -24405506#7 -24405506#6 -24405506#5 -24405506#4 25046387 -999609883#1 -999609883#0 25046412#5 199881960#0 1175651171 507058717#0 507058717#1 25042889#11 98246921 1168283956 535922410-AddedOnRampEdge 535922410 24160011 535922409 431981408#0 431981408#1 431981408#2 238875364#0 238875364#1 238875364#2 24683519#0 24683519#1 -431827302#1 -431827302#0 -24683531 24683527#0 24683527#1 24683527#2 24683527#3 24683527#4 431775782 420904972#0 -31896282 -293255743"/>
    </vehicle>
    <vehicle id="36" depart="118.24">
        <route edges="431775780 -431775780 -431775781 24683531 431827302#0 431827302#1 431994306 -80477039#1 -80477039#0 -422425537#1 -422425537#0 24683514#0 24683514#1 431827297#0 431827297#1 431827297#2 431827297#3 314066417 895708421 431989326 1168273992 1168273992-AddedOffRampEdge 1163917761 422730660#0-AddedOnRampEdge 422730660#0 -24405514#2 -24405514#1 25054216#0 25054216#1 25054228#1 24405516#0 24405516#1 25054219#0 25054219#1 -432777387 -432777386#6 -432777386#5 -432777386#4 376543472#0 -376543470"/>
    </vehicle>
    <vehicle id="37" depart="121.52">
        <route edges="24783924#0 -758831775#1 -758831775#0 334561591#0 -1094282287 -895216916#1"/>
    </vehicle>
    <vehicle id="38" depart="124.81">
        <route edges="432807561 -432807557 432807558 -432777384 25042919#0 25042919#1 25042919#2 432777386#0 432777386#1 432777386#2 432777386#3 432777386#4 432777386#5 432777386#6 432777387 -25054219#1 -25054219#0 -24405516#1 -24405516#0 -25054228#1 -25054228#0 -25054216#0 24405514#1 24405514#2 422730660#1 535572607 83002986 535574528 24405502#0 24405502#1 24405502#2 24405502#3 -854227946#4 -854227946#3 -854227946#2 -854227946#1 -854227946#0 179181038#0 179181038#1-AddedOnRampEdge 179181038#1 179181038#2 179181038#3 1094268114#0 1094268114#1 -999609877 1094268113 25054145#0 25054145#1 854227948 27347564#0 27347564#1 24783924#2 24783924#3 24783924#4 24783924#5 24783924#6 24783924#7 24783924#8 24783924#9 24783924#10 24783924#11 24783924#12 1205662256#3 1205662256#1 1205662257#0 -1168542195#1 1168542195#1"/>
    </vehicle>
    <vehicle id="39" depart="128.09">
        <route edges="-25044930#0 25044930#0 25044933#0 25044933#1 25044933#2 -376542025#1 -376542025#0 25111440#0 -25111439#1"/>
    </vehicle>
    <vehicle id="40" depart="131.38">
        <route edges="229472855#0 229472855#1 429529117#0 229472854 432770522 431981404#0 431981404#1 -25043183#1 -25043183#0 -421121876#1 -421121876#0 24159814#2 535554957 25042889#0 -24405506#9 -24405506#8 -24405506#7 -24405506#6 -24405506#5 -24405506#4 25046387 -999609883#1 -999609883#0 25046412#5 199881960#0 1175651171 507058717#0 507058717#1 25042889#11 98246921 1168283956 535922410-AddedOnRampEdge 535922410 24160011 535922409 431981408#0 431981408#1 431981408#2 238875364#0 238875364#1 238875364#2 24683519#0 24683519#1 -431827302#1 -431827302#0 -24683531 -431827307#1 -431827307#0 431827306#0 431827306#1 431827306#2 431827306#3 431827306#4 -293255543"/>
    </vehicle>
    <vehicle id="41" depart="134.66">
        <route edges="24405516#3 376543468 -25042923#0 -432777386#1 -432777386#0 -25042919#2 -25042919#1 -25042919#0 -199568036#1 -199568036#0 -25054602#0 -25054595#6 -25054595#5 -220666028#2 -220666028#1 432770529#1 432770530"/>
    </vehicle>
    <vehicle id="42" depart="137.94">
        <route edges="-431775782 -24683527#4 -24683527#3 -24683527#2 -24683527#1 -24683527#0 24683531 431827302#0 431827302#1 431994306 -80477039#1 -80477039#0 -422425537#1 -422425537#0 24683514#0 24683514#1 431827297#0 431827297#1 431827297#2 431827297#3 199885792 428326182 314066418-AddedOnRampEdge 314066418 535572607 83002986 535574528 24405502#0 24405502#1 24405502#2 24405502#3 -854227946#4 -854227946#3 -854227946#2 -854227946#1 -854227946#0 179181038#0 179181038#1-AddedOnRampEdge 179181038#1 179181038#2 179181038#3 179181038#4 -25054146#2 -25054146#1"/>
    </vehicle>
    <vehicle id="43" depart="141.23">
        <route edges="999668241 24699027#1 24699027#2 24699027#3 24699027#4 376539199 24699025#8 24699032#0 292747017#1 1168799438#0 1168799438#1 276638492#0 276638492#1 276638492#2 276636146#0 276636146#1 276636146#2 276636146#3 276636146#4 276636146#5 276636146#6 -854227942 -507058716 -25046412#6 199881960#0 1175651171 507058717#0 507058717#1 25042889#11 423997744 541024816 535566679#0 535566679#1 535566679#1-AddedOffRampEdge 314066420#1 314066420#2 314066420#3 535910621#1 535910621#1-AddedOffRampEdge 535910621#2 1087552159 24783924#0 24783924#1 24783924#2 24783924#3 24783924#4 24783924#5 24783924#6 24783924#7 24783924#8 24783924#9 24783924#10 24783924#11 1207682865 -1168542194#2 1168542192#0 -1211392025 1211392025"/>
    </vehicle>
    <vehicle id="44" depart="144.51">
        <route edges="-1380250678 895216932#3 895216932#4 895216932#5 895216932#6 -302965727#6 -302965727#5 -1380250679#0"/>
    </vehicle>
    <vehicle id="46" depart="151.08">
        <route edges="276638492#2 276636146#0 276636146#1 276636146#2 276636146#3 276636146#4 534900635#0 534900635#1 -24683515#2 -24683515#1 -874437282 24683513 422425537#0 422425537#1 422425537#2 80477039#1 431775779 431775778 431827300#0 24683535#3 24683536 948224714 -948224715 -948224713 -24791336#1 -24791336#0 24791335#6 1168279796 24791339#0 24791339#1 24791339#2 -637275760 -302965727#14 754427032#0 1079864363"/>
    </vehicle>
    <vehicle id="48" depart="157.65">
        <route edges="999609879 -25054138#3 -25054139 854227946#3 854227946#4 -24405502#3 -24405502#2 -24405502#1 -24405502#0 893289558 462693003 238875365 1168109380 535922409 24160010 541024817 83002985 1163917760 25042886 98246952 535554959#0 -854227939 -854227942 -507058716 -25046412#6 -25046412#5 999609883#0 999609883#1 -25046387 24405506#4 24405506#5 24405506#6 24405506#7 25043042 25042889#2 25042889#3 25042889#4 25042889#5 -107938350#6 -107938350#5 -107938350#4 -107938350#3 -107938350#2 -107938350#1 -107938350#0 25042889#9 25042889#9-AddedOffRampEdge 199881969#0 199881969#1"/>
    </vehicle>
    <vehicle id="49" depart="160.94">
        <route edges="895216896#1 -895216933#1 1094282282 -24791350#2 -24791350#1 -24791350#0 -302965728#0 -24791339#2 -24791339#1 -24791339#0 -1168279796 -24791335#6 -24791335#5 -24791335#4 -24791335#3 -24791335#2 -24791335#1 -24791335#0 424685850#1 535566666#1 98246932 535554959#0 -854227939 -276636146#6 -276636146#5 -276636146#4 -276636146#3 -276636146#2 -276636146#1 -276636146#0 293255910#0 293255910#1 293255909#0 293255909#1 293255909#2 -24699039#1 -24699039#0 420905059 805508870#2-AddedOnRampEdge 805508870#2 428334464"/>
    </vehicle>
    <vehicle id="50" depart="164.22">
        <route edges="-1094268112 -25054596#3 -25054596#2 -25054596#1 -25054596#0 -432775731#0 -432775732#1 220666028#2 25054595#5 25054595#6 25054595#7 25054602#1 25054602#2 25054587#0 25054587#1 25054587#2 432770524 432807560 432777381#0 432777381#1 432777381#2 229472854 432770522 431981404#0 431981404#1 -25043183#1 -25043183#0 -421121876#1 421121863#0 421121863#1 421121863#2 25043180#1 -432768292#6 -432768292#5 -432768292#4 -432768292#3 -432768292#2 -432768292#1 25044937"/>
    </vehicle>
    <vehicle id="51" depart="167.50">
        <route edges="25042889#3 25042889#4 25042889#5 -107938350#6 -107938350#5 -107938350#4 -107938350#3 -107938350#2 -107938350#1 -107938350#0 25042889#9 25042889#9-AddedOffRampEdge 25042889#10 25042889#11 98246921 1168283956 535922410-AddedOnRampEdge 535922410 24160011 535922409 431981408#0 431981408#1 431981408#2 238875364#0 238875364#1 238875364#2 24683519#0 24683519#1 431994306 -80477039#1 -80477039#0 -422425537#1 -422425537#0 24683514#0 24683514#1 431827297#0 431827297#1 431827297#2 431827297#3 314066417 24160012#0 24160012#1"/>
    </vehicle>
    <vehicle id="52" depart="170.79">
        <route edges="-25044932 -25044928#2 -25044928#1 -25044928#0 -421121863#0 -421121876#0 24159814#2 535554957 25042889#0 -24405506#9 -24405506#8 -24405506#7 -24405506#6 -24405506#5 -24405506#4 25046387 -999609883#1 -999609883#0 25046412#5 199881960#0 1175651171 507058717#0 507058717#1 25042889#11 423997744 541024816 535566679#0 535566679#1 535566679#1-AddedOffRampEdge 314066420#1 314066420#2 314066420#3 535910621#1 535910621#1-AddedOffRampEdge 535910621#2 1087552159 24783924#0 24783924#1"/>
    </vehicle>
    <vehicle id="53" depart="174.07">
        <route edges="-24405506#1 25046412#0 25046412#1 25046412#2 25046412#3 25046412#4 25046412#5 199881960#0 1175651171 507058717#0 507058717#1 25042889#11 98246921 1168283956 535922410-AddedOnRampEdge 535922410 24160011 535922409 431981408#0 431981408#1 431981408#2 238875364#0 238875364#1 238875364#2 24683519#0 24683519#1 431994306 431775779 431775778 431827300#0 -24683535#2 -24683535#1 -24683535#0 1094298144"/>
    </vehicle>
    <vehicle id="54" depart="177.36">
        <route edges="-668298285#1 -668298285#0 -668298286 -25046811#1 -25046811#0 -25043046#2 -25043046#1 -24405506#4 25046387 -999609883#1 -999609883#0 25046412#5 199881960#0 1175651171 507058717#0 507058717#1 25042889#11 98246921 1168283956 535922410-AddedOnRampEdge 535922410 24160011 535922409 431981408#0 431981408#1 431981408#2 238875364#0 238875364#1 238875364#2 24683519#0 24683519#1 431994306 431775779 431775778 431827300#0 24683535#3 24683536 948224714 -948224715 -948224713 -24791336#1 -24791336#0 24791335#6 1168279796 24791339#0 24791339#1 24791339#2 -637275760 -302965727#14 -302965727#13 -754427033 754427033"/>
    </vehicle>
    <vehicle id="55" depart="180.64">
        <route edges="431775778 -431775778 -431775779 -431994306 -431827302#1 -431827302#0 -24683531 -431827307#1 -431827307#0 431827306#0 431827306#1 431827306#2 431827306#3 431827306#4 293255544#0 293255544#1 293255544#2 -293255544#2"/>
    </vehicle>
    <vehicle id="57" depart="187.21">
        <route edges="432777387 -25054219#1 -25054219#0 -24405516#1 -24405516#0 -25054228#1 -25054228#0 -25054216#0 24405514#1 24405514#2 422730660#1 535572607 83002986 535574528 893289558 462693003 238875365 1168109380 535922409 431981408#0 431981408#1 431981408#2 238875364#0 238875364#1 238875364#2 24683519#0 24683519#1 431994306 431775779 431775778 431827300#0 431827300#1"/>
    </vehicle>
    <vehicle id="58" depart="190.49">
        <route edges="-25054142#3 1094268116 999609877 1094268115#0 457320396#6 457320396#7 854227946#0 854227946#1 854227946#2 854227946#3 854227946#4 -24405502#3 -24405502#2 -24405502#1 -24405502#0 893289558 462693003 238875365 1168109380 535922409 24160010 541024817 83002985 1163917760 25042886 98246952 535554959#0 535554959#1 98246944#1 98246944#2 98246944#3 98246944#4 98246944#5 98246944#6 98246944#7 98246944#8 98246944#9 98246944#10 98246944#11 -432248097#1 -432248097#0 -626957566 -24735618#2 -24735618#1 -24735607#2 -24735607#1 24735616#3"/>
    </vehicle>
    <vehicle id="59" depart="193.78">
        <route edges="24683557#2 -24791352#0 -31896239#1 -31896239#0 -24683557#0 -877695144 -24791386 -24683554#1 -24683554#0 -24683527#3 -24683527#2 -24683527#1 -24683527#0 24683531 431827302#0 431827302#1 431994306 -80477039#1 -80477039#0 -422425537#1 -422425537#0 24683514#0 24683514#1 431827297#0 431827297#1 431827297#2 431827297#3 314066417 24160012#0 24160012#1 98246952 535554959#0 535554959#1 98246944#1 98246944#2 98246944#3 98246944#4 98246944#5 98246944#6 98246944#7 98246944#8 98246944#9 98246944#10 98246944#11 98246944#12 98246944#13 98246944#13-AddedOffRampEdge 98246944#14 98246944#15 98246944#16 98246944#17 98246944#18 98246944#19 98246944#19-AddedOffRampEdge 535549123#0 535549123#1 535549123#2 65423591#1 25042887#0 25042887#1 25042887#2 -25044577 -25035452#3 -25044574#2 -25044574#1 -25044574#0 -25035451#3"/>
    </vehicle>
    <vehicle id="60" depart="197.06">
        <route edges="25054591#0 -432770526#0 -376545741#1 -376545741#0 -25054584#1 -25054584#0 432770524 432807560 432777381#0 432777381#1 432777381#2 229472854 432770522 431981404#0 431981404#1 -25043183#1 -25043183#0 -421121876#1 -421121876#0 24159814#2 535554957 25042889#0 25042889#1 25042889#2 25042889#3 25042889#4 25042889#5 -107938350#6 -107938350#5 -107938350#4 24405488"/>
    </vehicle>
    <vehicle id="61" depart="200.35">
        <route edges="25111441#1 25111441#2 -25042891#3 -25042891#2 -25042891#1 -25042891#0 25043183#0 25043183#1 -431981404#1 -431981404#0 -432770522 -229472854 -432777381#2 -432777381#1 -432777381#0 -432807560 -432770524 -25054587#2 -25054587#1 -25054587#0 -25054602#2 -25054602#1 -25054602#0 -25054595#6 -25054595#5 -220666028#2 220666028#2"/>
    </vehicle>
    <vehicle id="62" depart="203.63">
        <route edges="-107938343 293255911#4 -293255910#0 276636146#0 276636146#1 276636146#2 276636146#3 276636146#4 276636146#5 276636146#6 -854227942 -507058716 -25046412#6 -25046412#5 999609883#0 999609883#1 -25046387 24405506#4 24405506#5 24405506#6 24405506#7 24405506#8 -376543466#2 -376543466#1 -376543466#0 -98231048#2 -98231048#1 -98231048#0 -897097401#1 -897097401#0 -897097402#1 -897097402#0 -25042905#2 -25042905#1 -25042905#0 35631490 -25043183#1 -25043183#0 -421121876#1 -421121876#0"/>
    </vehicle>
    <vehicle id="63" depart="206.92">
        <route edges="-1168287296#1 1168287296#1 1168287296#2 1168287296#3 24405490#0 -107938350#2 -107938350#1 -107938350#0 25042889#9 25042889#9-AddedOffRampEdge 25042889#10 25042889#11 98246921 1168283956 535922410-AddedOnRampEdge 535922410 431981407 535910625#0"/>
    </vehicle>
    <vehicle id="64" depart="210.20">
        <route edges="431827298 535569424 431827297#0 431827297#1 431827297#2 431827297#3 314066417 24160012#0 24160012#1 98246952 535554959#0 535554959#1 98246944#1 98246944#2 98246944#3 98246944#4 98246944#5 98246944#6 98246944#7 98246944#8 98246944#9 -24405494#1 -24405494#0 -292747017#1 -24699032#0 -24699025#8 -24699025#7 -24699025#6 -376539198 376539198"/>
    </vehicle>
    <vehicle id="65" depart="213.49">