<?xml version="1.0" encoding="UTF-8"?>

<!-- generated on 2025-05-04 11:56:15.457639 by randomTrips.py 9a83456
<configuration>
    <net-file value="input\simon_bolivar.net.xml"/>
    <output-trip-file value="input\simon_bolivar_type2_80.trips.xml"/>
    <prefix value="type2_80"/>
    <trip-attributes value="departLane='best' departSpeed='max' departPos='random'"/>
    <fringe-factor value="3"/>
    <seed value="80"/>
    <validate value="True"/>
    <insertion-density value="80.0"/>
</configuration>
-->

<!-- generated on 2025-05-04 11:55:41 by Eclipse SUMO duarouter Version 1.18.0
<configuration xmlns:xsi="http://www.w3.org/2001/XMLSchema-instance" xsi:noNamespaceSchemaLocation="http://sumo.dlr.de/xsd/duarouterConfiguration.xsd">

    <input>
        <net-file value="input\simon_bolivar.net.xml"/>
        <route-files value="input\simon_bolivar_type2_80.trips.xml"/>
    </input>

    <output>
        <output-file value="input\simon_bolivar_type2_80.trips.xml.tmp"/>
        <alternatives-output value="NUL"/>
        <write-trips value="true"/>
    </output>

    <time>
        <begin value="0"/>
        <end value="3600"/>
    </time>

    <report>
        <no-warnings value="true"/>
        <ignore-errors value="true"/>
        <no-step-log value="true"/>
    </report>

</configuration>
-->

<routes xmlns:xsi="http://www.w3.org/2001/XMLSchema-instance" xsi:noNamespaceSchemaLocation="http://sumo.dlr.de/xsd/routes_file.xsd">
    <trip id="type2_800" depart="0.00" departLane="best" departPos="random" departSpeed="max" from="-25045239#1" to="24405491"/>
    <trip id="type2_802" depart="0.25" departLane="best" departPos="random" departSpeed="max" from="-376539196#2" to="238875364#0"/>
    <trip id="type2_803" depart="0.37" departLane="best" departPos="random" departSpeed="max" from="-376543464#1" to="24405506#6"/>
    <trip id="type2_804" depart="0.49" departLane="best" departPos="random" departSpeed="max" from="376539196#0" to="98246944#14"/>
    <trip id="type2_805" depart="0.62" departLane="best" departPos="random" departSpeed="max" from="535570456#0" to="637275763#1"/>
    <trip id="type2_806" depart="0.74" departLane="best" departPos="random" departSpeed="max" from="-1201886220" to="-25054602#0"/>
    <trip id="type2_807" depart="0.86" departLane="best" departPos="random" departSpeed="max" from="668298286" to="24683514#0"/>
    <trip id="type2_809" depart="1.11" departLane="best" departPos="random" departSpeed="max" from="541024816" to="-25054589"/>
    <trip id="type2_8010" depart="1.23" departLane="best" departPos="random" departSpeed="max" from="-31895149#1" to="-25042920#3"/>
    <trip id="type2_8011" depart="1.35" departLane="best" departPos="random" departSpeed="max" from="895216933#0" to="-25046412#4"/>
    <trip id="type2_8012" depart="1.48" departLane="best" departPos="random" departSpeed="max" from="-25044575" to="-24683522"/>
    <trip id="type2_8013" depart="1.60" departLane="best" departPos="random" departSpeed="max" from="-24405487#0" to="-1094541188#0"/>
    <trip id="type2_8014" depart="1.72" departLane="best" departPos="random" departSpeed="max" from="-107938377#2" to="199881963"/>
    <trip id="type2_8015" depart="1.85" departLane="best" departPos="random" departSpeed="max" from="-25054142#1" to="-626957571#0"/>
    <trip id="type2_8016" depart="1.97" departLane="best" departPos="random" departSpeed="max" from="24405507#3" to="-376543471"/>
    <trip id="type2_8017" depart="2.09" departLane="best" departPos="random" departSpeed="max" from="25046813#1" to="-25054870#0"/>
    <trip id="type2_8018" depart="2.22" departLane="best" departPos="random" departSpeed="max" from="1079848665" to="-637275764#0"/>
    <trip id="type2_8019" depart="2.34" departLane="best" departPos="random" departSpeed="max" from="25046811#1" to="1168541555#2"/>
    <trip id="type2_8020" depart="2.46" departLane="best" departPos="random" departSpeed="max" from="-25046400#0" to="535922410-AddedOnRampEdge"/>
    <trip id="type2_8021" depart="2.59" departLane="best" departPos="random" departSpeed="max" from="25111445#3" to="-432768291#5"/>
    <trip id="type2_8022" depart="2.71" departLane="best" departPos="random" departSpeed="max" from="25035452#0" to="1205693234#2"/>
    <trip id="type2_8023" depart="2.83" departLane="best" departPos="random" departSpeed="max" from="-1190782924" to="-25046813#0"/>
    <trip id="type2_8024" depart="2.96" departLane="best" departPos="random" departSpeed="max" from="24783924#11" to="-1094268118#0"/>
    <trip id="type2_8025" depart="3.08" departLane="best" departPos="random" departSpeed="max" from="-1190782921" to="-293255732"/>
    <trip id="type2_8026" depart="3.20" departLane="best" departPos="random" departSpeed="max" from="-895216938" to="-107938371"/>
    <trip id="type2_8027" depart="3.33" departLane="best" departPos="random" departSpeed="max" from="895263280" to="97293752#1"/>
    <trip id="type2_8028" depart="3.45" departLane="best" departPos="random" departSpeed="max" from="25111441#0" to="422425537#1"/>
    <trip id="type2_8030" depart="3.69" departLane="best" departPos="random" departSpeed="max" from="-432770520#3" to="-25042890"/>
    <trip id="type2_8031" depart="3.82" departLane="best" departPos="random" departSpeed="max" from="-507058715" to="24791335#3"/>
    <trip id="type2_8032" depart="3.94" departLane="best" departPos="random" departSpeed="max" from="376539196#0" to="25054228#4"/>
    <trip id="type2_8033" depart="4.06" departLane="best" departPos="random" departSpeed="max" from="-1205665802" to="-24791575#1"/>
    <trip id="type2_8034" depart="4.19" departLane="best" departPos="random" departSpeed="max" from="-429529117#0" to="-276641591"/>
    <trip id="type2_8035" depart="4.31" departLane="best" departPos="random" departSpeed="max" from="-292747017#1" to="27408621#1"/>
    <trip id="type2_8036" depart="4.43" departLane="best" departPos="random" departSpeed="max" from="1201844353" to="24791336#3"/>
    <trip id="type2_8037" depart="4.56" departLane="best" departPos="random" departSpeed="max" from="999609878" to="1168801372"/>
    <trip id="type2_8038" depart="4.68" departLane="best" departPos="random" departSpeed="max" from="24405516#0" to="97293743#1"/>
    <trip id="type2_8039" depart="4.80" departLane="best" departPos="random" departSpeed="max" from="24160009" to="302965728#0"/>
    <trip id="type2_8040" depart="4.93" departLane="best" departPos="random" departSpeed="max" from="25054595#5" to="1094268117"/>
    <trip id="type2_8041" depart="5.05" departLane="best" departPos="random" departSpeed="max" from="-25046403#0" to="24683524#1"/>
    <trip id="type2_8042" depart="5.17" departLane="best" departPos="random" departSpeed="max" from="-25046815#2" to="-889497761"/>
    <trip id="type2_8043" depart="5.30" departLane="best" departPos="random" departSpeed="max" from="-1094261603#3" to="894591163#1"/>
    <trip id="type2_8044" depart="5.42" departLane="best" departPos="random" departSpeed="max" from="768280998" to="-24405519#0"/>
    <trip id="type2_8045" depart="5.54" departLane="best" departPos="random" departSpeed="max" from="-24791340" to="-302965728#4"/>
    <trip id="type2_8046" depart="5.67" departLane="best" departPos="random" departSpeed="max" from="-25054602#2" to="-357850163#0"/>
    <trip id="type2_8047" depart="5.79" departLane="best" departPos="random" departSpeed="max" from="-302965727#9" to="24699017#2"/>
    <trip id="type2_8049" depart="6.04" departLane="best" departPos="random" departSpeed="max" from="25044929#2" to="-25044929#1"/>
    <trip id="type2_8050" depart="6.16" departLane="best" departPos="random" departSpeed="max" from="276638492#2" to="-25042921#1"/>
    <trip id="type2_8051" depart="6.28" departLane="best" departPos="random" departSpeed="max" from="948224715" to="-24699031#0"/>
    <trip id="type2_8054" depart="6.65" departLane="best" departPos="random" departSpeed="max" from="25043046#0" to="535910621#4-AddedOnRampEdge"/>
    <trip id="type2_8055" depart="6.77" departLane="best" departPos="random" departSpeed="max" from="-24735604#1" to="421121876#0"/>
    <trip id="type2_8057" depart="7.02" departLane="best" departPos="random" departSpeed="max" from="24683538#0" to="431827300#1"/>
    <trip id="type2_8058" depart="7.14" departLane="best" departPos="random" departSpeed="max" from="429531573#1" to="895462375#2"/>
    <trip id="type2_8059" depart="7.27" departLane="best" departPos="random" departSpeed="max" from="-25046390#1" to="25043184#1"/>
    <trip id="type2_8060" depart="7.39" departLane="best" departPos="random" departSpeed="max" from="-25054870#1" to="-431827304#3"/>
    <trip id="type2_8061" depart="7.51" departLane="best" departPos="random" departSpeed="max" from="432248099#5" to="-25054588#1"/>
    <trip id="type2_8062" depart="7.64" departLane="best" departPos="random" departSpeed="max" from="-25111440#2" to="376543468"/>
    <trip id="type2_8063" depart="7.76" departLane="best" departPos="random" departSpeed="max" from="24699045#2" to="24405501#1"/>
    <trip id="type2_8064" depart="7.88" departLane="best" departPos="random" departSpeed="max" from="276638494#1" to="98246944#8"/>
    <trip id="type2_8065" depart="8.01" departLane="best" departPos="random" departSpeed="max" from="-432248099#4" to="24683559#1"/>
    <trip id="type2_8066" depart="8.13" departLane="best" departPos="random" departSpeed="max" from="-1168541556" to="24791339#1"/>
    <trip id="type2_8067" depart="8.25" departLane="best" departPos="random" departSpeed="max" from="-1094282287" to="-421121863#0"/>
    <trip id="type2_8068" depart="8.38" departLane="best" departPos="random" departSpeed="max" from="-637275758" to="-25046388"/>
    <trip id="type2_8070" depart="8.62" departLane="best" departPos="random" departSpeed="max" from="24699027#2" to="-357850163#0"/>
    <trip id="type2_8071" depart="8.74" departLane="best" departPos="random" departSpeed="max" from="431994307" to="754427029#1"/>
    <trip id="type2_8072" depart="8.87" departLane="best" departPos="random" departSpeed="max" from="-25054871#1" to="25046407#1"/>
    <trip id="type2_8073" depart="8.99" departLane="best" departPos="random" departSpeed="max" from="895216913#0" to="668297823"/>
    <trip id="type2_8074" depart="9.11" departLane="best" departPos="random" departSpeed="max" from="179181038#2" to="25042911#2"/>
    <trip id="type2_8075" depart="9.24" departLane="best" departPos="random" departSpeed="max" from="-534900637#0" to="-25054871#1"/>
    <trip id="type2_8076" depart="9.36" departLane="best" departPos="random" departSpeed="max" from="-24699027#3" to="25054146#2"/>
    <trip id="type2_8077" depart="9.48" departLane="best" departPos="random" departSpeed="max" from="-107938391#1" to="24405516#3"/>
    <trip id="type2_8078" depart="9.61" departLane="best" departPos="random" departSpeed="max" from="-25046817" to="376539201"/>
    <trip id="type2_8079" depart="9.73" departLane="best" departPos="random" departSpeed="max" from="24405511#1" to="25054138#3"/>
    <trip id="type2_8080" depart="9.85" departLane="best" departPos="random" departSpeed="max" from="-25042897" to="-24405509#1"/>
    <trip id="type2_8081" depart="9.98" departLane="best" departPos="random" departSpeed="max" from="-1206753903" to="25043183#1"/>
    <trip id="type2_8082" depart="10.10" departLane="best" departPos="random" departSpeed="max" from="-894591189" to="-25042900#0"/>
    <trip id="type2_8083" depart="10.22" departLane="best" departPos="random" departSpeed="max" from="-25046813#0" to="-293256888"/>
    <trip id="type2_8084" depart="10.35" departLane="best" departPos="random" departSpeed="max" from="-24683515#1" to="1201612997"/>
    <trip id="type2_8086" depart="10.59" departLane="best" departPos="random" departSpeed="max" from="-25044934#2" to="24735605"/>
    <trip id="type2_8088" depart="10.84" departLane="best" departPos="random" departSpeed="max" from="25046403#1" to="-897097401#0"/>
    <trip id="type2_8089" depart="10.96" departLane="best" departPos="random" departSpeed="max" from="-432770521#1" to="25044928#0"/>
    <trip id="type2_8091" depart="11.21" departLane="best" departPos="random" departSpeed="max" from="-25054602#2" to="25046429"/>
    <trip id="type2_8092" depart="11.33" departLane="best" departPos="random" departSpeed="max" from="-199881960#3" to="-1211499993"/>
    <trip id="type2_8093" depart="11.45" departLane="best" departPos="random" departSpeed="max" from="24791356" to="107938391#2"/>
    <trip id="type2_8094" depart="11.58" departLane="best" departPos="random" departSpeed="max" from="25054877" to="-24699027#9"/>
    <trip id="type2_8096" depart="11.82" departLane="best" departPos="random" departSpeed="max" from="534900637#4" to="-25043044#0"/>
    <trip id="type2_8097" depart="11.95" departLane="best" departPos="random" departSpeed="max" from="24405491" to="535570456#1"/>
    <trip id="type2_8098" depart="12.07" departLane="best" departPos="random" departSpeed="max" from="432770521#1" to="25042914#0"/>
    <trip id="type2_8099" depart="12.19" departLane="best" departPos="random" departSpeed="max" from="897097402#0" to="-293256120#2"/>
    <trip id="type2_80100" depart="12.32" departLane="best" departPos="random" departSpeed="max" from="1168287297#4" to="-24405506#3"/>
    <trip id="type2_80101" depart="12.44" departLane="best" departPos="random" departSpeed="max" from="-24405524" to="-1205662259#0"/>
    <trip id="type2_80102" depart="12.56" departLane="best" departPos="random" departSpeed="max" from="-864273547" to="432234379#1"/>
    <trip id="type2_80103" depart="12.69" departLane="best" departPos="random" departSpeed="max" from="-24791352#0" to="376545745#1"/>
    <trip id="type2_80104" depart="12.81" departLane="best" departPos="random" departSpeed="max" from="24683557#1" to="-25042911#1"/>
    <trip id="type2_80105" depart="12.93" departLane="best" departPos="random" departSpeed="max" from="24699027#7" to="25046428"/>
    <trip id="type2_80106" depart="13.06" departLane="best" departPos="random" departSpeed="max" from="-24699041#3" to="-357850162"/>
    <trip id="type2_80107" depart="13.18" departLane="best" departPos="random" departSpeed="max" from="999672221" to="24699027#5"/>
    <trip id="type2_80108" depart="13.30" departLane="best" departPos="random" departSpeed="max" from="432248098" to="-25044935"/>
    <trip id="type2_80109" depart="13.42" departLane="best" departPos="random" departSpeed="max" from="-25054220#1" to="-24699017#0"/>
    <trip id="type2_80110" depart="13.55" departLane="best" departPos="random" departSpeed="max" from="431947110#1" to="199836131"/>
    <trip id="type2_80111" depart="13.67" departLane="best" departPos="random" departSpeed="max" from="-24699035" to="24699044#0"/>
    <trip id="type2_80112" depart="13.79" departLane="best" departPos="random" departSpeed="max" from="25042896#2" to="-432777386#2"/>
    <trip id="type2_80113" depart="13.92" departLane="best" departPos="random" departSpeed="max" from="-432775733" to="25054598#1"/>
    <trip id="type2_80114" depart="14.04" departLane="best" departPos="random" departSpeed="max" from="-25046814#1" to="-25111487#0"/>
    <trip id="type2_80115" depart="14.16" departLane="best" departPos="random" departSpeed="max" from="-24405506#2" to="1205679701"/>
    <trip id="type2_80116" depart="14.29" departLane="best" departPos="random" departSpeed="max" from="-1094268119" to="-220666028#2"/>
    <trip id="type2_80117" depart="14.41" departLane="best" departPos="random" departSpeed="max" from="-1205693234#0" to="431827307#0"/>
    <trip id="type2_80118" depart="14.53" departLane="best" departPos="random" departSpeed="max" from="24405507#2" to="-24735603#0"/>
    <trip id="type2_80119" depart="14.66" departLane="best" departPos="random" departSpeed="max" from="432768291#5" to="25042901"/>
    <trip id="type2_80120" depart="14.78" departLane="best" departPos="random" departSpeed="max" from="-25045235#0" to="-24699025#1"/>
    <trip id="type2_80121" depart="14.90" departLane="best" departPos="random" departSpeed="max" from="-1201838049" to="-334561890"/>
    <trip id="type2_80122" depart="15.03" departLane="best" departPos="random" departSpeed="max" from="-25054217#2" to="25054219#2"/>
    <trip id="type2_80123" depart="15.15" departLane="best" departPos="random" departSpeed="max" from="-25054219#2" to="1168542193#1"/>
    <trip id="type2_80124" depart="15.27" departLane="best" departPos="random" departSpeed="max" from="-27408621#1" to="-432770526#2"/>
    <trip id="type2_80126" depart="15.52" departLane="best" departPos="random" departSpeed="max" from="-25042908#1" to="-24791350#2"/>
    <trip id="type2_80127" depart="15.64" departLane="best" departPos="random" departSpeed="max" from="24699045#4" to="1168544743#1"/>
    <trip id="type2_80128" depart="15.77" departLane="best" departPos="random" departSpeed="max" from="-24405488" to="-25046393#0"/>
    <trip id="type2_80129" depart="15.89" departLane="best" departPos="random" departSpeed="max" from="25054596#0" to="24405506#6"/>
    <trip id="type2_80130" depart="16.01" departLane="best" departPos="random" departSpeed="max" from="-334549231#0" to="-24783924#3"/>
    <trip id="type2_80131" depart="16.13" departLane="best" departPos="random" departSpeed="max" from="25054138#1" to="-25044928#0"/>
    <trip id="type2_80132" depart="16.26" departLane="best" departPos="random" departSpeed="max" from="-1205679702#1" to="-24405496"/>
    <trip id="type2_80133" depart="16.38" departLane="best" departPos="random" departSpeed="max" from="1079848665" to="-334561891#1"/>
    <trip id="type2_80134" depart="16.50" departLane="best" departPos="random" departSpeed="max" from="-24791352#0" to="-24699045#4"/>
    <trip id="type2_80135" depart="16.63" departLane="best" departPos="random" departSpeed="max" from="-1380250677" to="-432770522"/>
    <trip id="type2_80136" depart="16.75" departLane="best" departPos="random" departSpeed="max" from="25045239#3" to="1201612996"/>
    <trip id="type2_80137" depart="16.87" departLane="best" departPos="random" departSpeed="max" from="376543464#3" to="24791346"/>
    <trip id="type2_80138" depart="17.00" departLane="best" departPos="random" departSpeed="max" from="24683541" to="-432234379#0"/>
    <trip id="type2_80139" depart="17.12" departLane="best" departPos="random" departSpeed="max" from="-98231048#1" to="24683535#6"/>
    <trip id="type2_80140" depart="17.24" departLane="best" departPos="random" departSpeed="max" from="-24405511#1" to="-24699039#1"/>
    <trip id="type2_80141" depart="17.37" departLane="best" departPos="random" departSpeed="max" from="-24405519#3" to="-25042893#0"/>
    <trip id="type2_80142" depart="17.49" departLane="best" departPos="random" departSpeed="max" from="679900450" to="334561591#1"/>
    <trip id="type2_80143" depart="17.61" departLane="best" departPos="random" departSpeed="max" from="25043182#0" to="-25046406#0"/>
    <trip id="type2_80146" depart="17.98" departLane="best" departPos="random" departSpeed="max" from="-1168287296#3" to="98246944#13-AddedOffRampEdge"/>
    <trip id="type2_80147" depart="18.11" departLane="best" departPos="random" departSpeed="max" from="-1201877287" to="107938391#0"/>
    <trip id="type2_80149" depart="18.35" departLane="best" departPos="random" departSpeed="max" from="98246944#8" to="-431827300#0"/>
    <trip id="type2_80150" depart="18.47" departLane="best" departPos="random" departSpeed="max" from="-24699038" to="-25046412#5"/>
    <trip id="type2_80152" depart="18.72" departLane="best" departPos="random" departSpeed="max" from="-25046394#1" to="-293255544#2"/>
    <trip id="type2_80153" depart="18.84" departLane="best" departPos="random" departSpeed="max" from="-24791345#2" to="-25042914#1"/>
    <trip id="type2_80155" depart="19.09" departLane="best" departPos="random" departSpeed="max" from="-24735617#1" to="1205693236"/>
    <trip id="type2_80156" depart="19.21" departLane="best" departPos="random" departSpeed="max" from="229472853#1" to="25054221#1"/>
    <trip id="type2_80157" depart="19.34" departLane="best" departPos="random" departSpeed="max" from="-293255911#4" to="1080119679"/>
    <trip id="type2_80158" depart="19.46" departLane="best" departPos="random" departSpeed="max" from="-376545745#1" to="-24791344#0"/>
    <trip id="type2_80159" depart="19.58" departLane="best" departPos="random" departSpeed="max" from="376543470" to="25042889#6"/>
    <trip id="type2_80160" depart="19.71" departLane="best" departPos="random" departSpeed="max" from="-24735606" to="429376298"/>
    <trip id="type2_80161" depart="19.83" departLane="best" departPos="random" departSpeed="max" from="-25111440#0" to="302965727#10"/>
    <trip id="type2_80162" depart="19.95" departLane="best" departPos="random" departSpeed="max" from="999668241" to="429376298"/>
    <trip id="type2_80163" depart="20.08" departLane="best" departPos="random" departSpeed="max" from="-895263280" to="24683554#0"/>
    <trip id="type2_80164" depart="20.20" departLane="best" departPos="random" departSpeed="max" from="-637275761#0" to="1203856562"/>
    <trip id="type2_80165" depart="20.32" departLane="best" departPos="random" departSpeed="max" from="462693003" to="293255911#0"/>
    <trip id="type2_80166" depart="20.45" departLane="best" departPos="random" departSpeed="max" from="25046393#1" to="420905011#0"/>
    <trip id="type2_80168" depart="20.69" departLane="best" departPos="random" departSpeed="max" from="-948224713" to="-1201829326#1"/>
    <trip id="type2_80170" depart="20.94" departLane="best" departPos="random" departSpeed="max" from="-894591163#1" to="-1204059062"/>
    <trip id="type2_80171" depart="21.06" departLane="best" departPos="random" departSpeed="max" from="24405503#1" to="-999609876"/>
    <trip id="type2_80172" depart="21.18" departLane="best" departPos="random" departSpeed="max" from="-24791345#0" to="535910621#4"/>
    <trip id="type2_80173" depart="21.31" departLane="best" departPos="random" departSpeed="max" from="31896236#0" to="-895216913#0"/>
    <trip id="type2_80174" depart="21.43" departLane="best" departPos="random" departSpeed="max" from="1168542194#3" to="-293256120#0"/>
    <trip id="type2_80175" depart="21.55" departLane="best" departPos="random" departSpeed="max" from="-293255743" to="431981408#1"/>
    <trip id="type2_80177" depart="21.80" departLane="best" departPos="random" departSpeed="max" from="-276626522" to="894591163#1"/>
    <trip id="type2_80179" depart="22.05" departLane="best" departPos="random" departSpeed="max" from="24405502#2" to="199836131"/>
    <trip id="type2_80181" depart="22.29" departLane="best" departPos="random" departSpeed="max" from="-25043045#1" to="25042904"/>
    <trip id="type2_80182" depart="22.42" departLane="best" departPos="random" departSpeed="max" from="1094282288" to="534799444#1"/>
    <trip id="type2_80183" depart="22.54" departLane="best" departPos="random" departSpeed="max" from="-25054140" to="24699027#1"/>
    <trip id="type2_80184" depart="22.66" departLane="best" departPos="random" departSpeed="max" from="432777387" to="668297056"/>
    <trip id="type2_80185" depart="22.79" departLane="best" departPos="random" departSpeed="max" from="-25035452#4" to="432770520#5"/>
    <trip id="type2_80186" depart="22.91" departLane="best" departPos="random" departSpeed="max" from="431827304#0" to="429376298"/>
    <trip id="type2_80187" depart="23.03" departLane="best" departPos="random" departSpeed="max" from="-24791345#3" to="372239268"/>
    <trip id="type2_80188" depart="23.15" departLane="best" departPos="random" departSpeed="max" from="83002986" to="25035451#3"/>
    <trip id="type2_80189" depart="23.28" departLane="best" departPos="random" departSpeed="max" from="376543466#0" to="-1094298147"/>
    <trip id="type2_80190" depart="23.40" departLane="best" departPos="random" departSpeed="max" from="-25044932" to="1205693237"/>
    <trip id="type2_80191" depart="23.52" departLane="best" departPos="random" departSpeed="max" from="-107938377#3" to="-895216941"/>
    <trip id="type2_80192" depart="23.65" departLane="best" departPos="random" departSpeed="max" from="-276636146#4" to="-376543469#0"/>
    <trip id="type2_80193" depart="23.77" departLane="best" departPos="random" departSpeed="max" from="754672454" to="24699027#1"/>
    <trip id="type2_80194" depart="23.89" departLane="best" departPos="random" departSpeed="max" from="24159814#0" to="-24683535#5"/>
    <trip id="type2_80195" depart="24.02" departLane="best" departPos="random" departSpeed="max" from="-24405490#0" to="25042887#1"/>
    <trip id="type2_80196" depart="24.14" departLane="best" departPos="random" departSpeed="max" from="98246944#13-AddedOffRampEdge" to="-1168798714"/>
    <trip id="type2_80197" depart="24.26" departLane="best" departPos="random" departSpeed="max" from="25042891#1" to="-1205662259#1"/>
    <trip id="type2_80198" depart="24.39" departLane="best" departPos="random" departSpeed="max" from="-895216932#3" to="-24735614"/>
    <trip id="type2_80199" depart="24.51" departLane="best" departPos="random" departSpeed="max" from="25054583#1" to="-24683548"/>
    <trip id="type2_80201" depart="24.76" departLane="best" departPos="random" departSpeed="max" from="-24791339#0" to="-1203849763"/>
    <trip id="type2_80202" depart="24.88" departLane="best" departPos="random" departSpeed="max" from="-376542025#1" to="-24683533#0"/>
    <trip id="type2_80203" depart="25.00" departLane="best" departPos="random" departSpeed="max" from="-25044576#2" to="-432248099#1"/>
    <trip id="type2_80204" depart="25.13" departLane="best" departPos="random" departSpeed="max" from="-229472853#0" to="376543474#3"/>
    <trip id="type2_80205" depart="25.25" departLane="best" departPos="random" departSpeed="max" from="-24405514#2" to="535910621#4-AddedOnRampEdge"/>
    <trip id="type2_80206" depart="25.37" departLane="best" departPos="random" departSpeed="max" from="-25046417#0" to="-1205679702#0"/>
    <trip id="type2_80207" depart="25.50" departLane="best" departPos="random" departSpeed="max" from="-24683525#2" to="-1201829326#1"/>
    <trip id="type2_80208" depart="25.62" departLane="best" departPos="random" departSpeed="max" from="999609877" to="25043789"/>
    <trip id="type2_80209" depart="25.74" departLane="best" departPos="random" departSpeed="max" from="-431827302#0" to="431981401"/>
    <trip id="type2_80210" depart="25.86" departLane="best" departPos="random" departSpeed="max" from="-895462378#1" to="199885791"/>
    <trip id="type2_80211" depart="25.99" departLane="best" departPos="random" departSpeed="max" from="-25054219#1" to="25046413"/>
    <trip id="type2_80212" depart="26.11" departLane="best" departPos="random" departSpeed="max" from="-1094268111" to="992340212#1"/>
    <trip id="type2_80213" depart="26.23" departLane="best" departPos="random" departSpeed="max" from="25054582#2" to="24405511#3"/>
    <trip id="type2_80214" depart="26.36" departLane="best" departPos="random" departSpeed="max" from="-1203377496" to="-276641591"/>
    <trip id="type2_80215" depart="26.48" departLane="best" departPos="random" departSpeed="max" from="-24405489#2" to="-24683548"/>
    <trip id="type2_80216" depart="26.60" departLane="best" departPos="random" departSpeed="max" from="-1205384190" to="421121949"/>
    <trip id="type2_80217" depart="26.73" departLane="best" departPos="random" departSpeed="max" from="25046433#0" to="276602814#2"/>
    <trip id="type2_80221" depart="27.22" departLane="best" departPos="random" departSpeed="max" from="431981403#2" to="-25044578"/>
    <trip id="type2_80222" depart="27.34" departLane="best" departPos="random" departSpeed="max" from="24405519#1" to="1168542194#2"/>
    <trip id="type2_80224" depart="27.59" departLane="best" departPos="random" departSpeed="max" from="-25044930#0" to="24683540#0"/>
    <trip id="type2_80225" depart="27.71" departLane="best" departPos="random" departSpeed="max" from="-1190782921" to="-1207682864"/>
    <trip id="type2_80226" depart="27.84" departLane="best" departPos="random" departSpeed="max" from="-24405489#2" to="27347564#0"/>
    <trip id="type2_80228" depart="28.08" departLane="best" departPos="random" departSpeed="max" from="1094268113" to="1205370744"/>
    <trip id="type2_80229" depart="28.20" departLane="best" departPos="random" departSpeed="max" from="-25042908#0" to="25054220#1"/>
    <trip id="type2_80230" depart="28.33" departLane="best" departPos="random" departSpeed="max" from="-1219475773" to="-24791335#3"/>
    <trip id="type2_80232" depart="28.57" departLane="best" departPos="random" departSpeed="max" from="302965728#3" to="24735612#3"/>
    <trip id="type2_80233" depart="28.70" departLane="best" departPos="random" departSpeed="max" from="293255732" to="24683527#2"/>
    <trip id="type2_80234" depart="28.82" departLane="best" departPos="random" departSpeed="max" from="-24683555" to="25046819#2"/>
    <trip id="type2_80236" depart="29.07" departLane="best" departPos="random" departSpeed="max" from="-376543469#2" to="768280998"/>
    <trip id="type2_80237" depart="29.19" departLane="best" departPos="random" departSpeed="max" from="-24699018#0" to="98246944#9"/>
    <trip id="type2_80238" depart="29.31" departLane="best" departPos="random" departSpeed="max" from="1094316873" to="24783924#2"/>
    <trip id="type2_80239" depart="29.44" departLane="best" departPos="random" departSpeed="max" from="25054138#4" to="766099241"/>
    <trip id="type2_80240" depart="29.56" departLane="best" departPos="random" departSpeed="max" from="-372239266#1" to="1168287297#2"/>
    <trip id="type2_80241" depart="29.68" departLane="best" departPos="random" departSpeed="max" from="-668298285#1" to="25046388"/>
    <trip id="type2_80243" depart="29.93" departLane="best" departPos="random" departSpeed="max" from="-24405509#1" to="-25043183#1"/>
    <trip id="type2_80244" depart="30.05" departLane="best" departPos="random" departSpeed="max" from="432777386#4" to="854227946#2"/>