<routes xmlns:xsi="http://www.w3.org/2001/XMLSchema-instance" xsi:noNamespaceSchemaLocation="http://sumo.dlr.de/xsd/routes_file.xsd">
    <trip id="type2_600" depart="0.00" departLane="best" departPos="random" departSpeed="max" from="-25046407#1" to="24683535#3" />
    <trip id="type2_601" depart="0.16" departLane="best" departPos="random" departSpeed="max" from="-25042914#2" to="293255910#1" />
    <trip id="type2_602" depart="0.33" departLane="best" departPos="random" departSpeed="max" from="-637275763#0" to="-432768292#1" />
    <trip id="type2_603" depart="0.49" departLane="best" departPos="random" departSpeed="max" from="431992667#0" to="253234076#1" />
    <trip id="type2_604" depart="0.66" departLane="best" departPos="random" departSpeed="max" from="376539776" to="24791350#4" />
    <trip id="type2_605" depart="0.82" departLane="best" departPos="random" departSpeed="max" from="-24699028" to="-98231048#0" />
    <trip id="type2_607" depart="1.15" departLane="best" departPos="random" departSpeed="max" from="-1094261603#2" to="25111486" />
    <trip id="type2_608" depart="1.31" departLane="best" departPos="random" departSpeed="max" from="-24683547#1" to="-376543472#1" />
    <trip id="type2_609" depart="1.48" departLane="best" departPos="random" departSpeed="max" from="24683559#0" to="25035452#4" />
    <trip id="type2_6010" depart="1.64" departLane="best" departPos="random" departSpeed="max" from="-895462375#2" to="24405506#1" />
    <trip id="type2_6012" depart="1.97" departLane="best" departPos="random" departSpeed="max" from="-1219469414" to="-376543464#2" />
    <trip id="type2_6013" depart="2.13" departLane="best" departPos="random" departSpeed="max" from="-1168287295" to="24405521#1" />
    <trip id="type2_6014" depart="2.30" departLane="best" departPos="random" departSpeed="max" from="-25044932" to="-276636146#6" />
    <trip id="type2_6015" depart="2.46" departLane="best" departPos="random" departSpeed="max" from="-25043040" to="668297056" />
    <trip id="type2_6016" depart="2.63" departLane="best" departPos="random" departSpeed="max" from="-24405489#2" to="432775731#1" />
    <trip id="type2_6017" depart="2.79" departLane="best" departPos="random" departSpeed="max" from="432768291#0" to="-25054146#0" />
    <trip id="type2_6018" depart="2.96" departLane="best" departPos="random" departSpeed="max" from="31896632" to="-25046433#0" />
    <trip id="type2_6019" depart="3.12" departLane="best" departPos="random" departSpeed="max" from="24699032#0" to="-24735616#0" />
    <trip id="type2_6020" depart="3.28" departLane="best" departPos="random" departSpeed="max" from="-25046811#3" to="1205439393" />
    <trip id="type2_6021" depart="3.45" departLane="best" departPos="random" departSpeed="max" from="-302965728#0" to="337312509#1" />
    <trip id="type2_6022" depart="3.61" departLane="best" departPos="random" departSpeed="max" from="24699036#1" to="-1203849763" />
    <trip id="type2_6023" depart="3.78" departLane="best" departPos="random" departSpeed="max" from="1201838048" to="-24683560#0" />
    <trip id="type2_6024" depart="3.94" departLane="best" departPos="random" departSpeed="max" from="-24683560#7" to="-97293752#1" />
    <trip id="type2_6025" depart="4.11" departLane="best" departPos="random" departSpeed="max" from="-25046433#1" to="24405506#1" />
    <trip id="type2_6026" depart="4.27" departLane="best" departPos="random" departSpeed="max" from="909187260" to="25054596#4" />
    <trip id="type2_6027" depart="4.43" departLane="best" departPos="random" departSpeed="max" from="1168287297#2" to="376542025#1" />
    <trip id="type2_6028" depart="4.60" departLane="best" departPos="random" departSpeed="max" from="-24683551#1" to="25043789" />
    <trip id="type2_6029" depart="4.76" departLane="best" departPos="random" departSpeed="max" from="895216910" to="668297056" />
    <trip id="type2_6030" depart="4.93" departLane="best" departPos="random" departSpeed="max" from="-895462358#1" to="24683553" />
    <trip id="type2_6031" depart="5.09" departLane="best" departPos="random" departSpeed="max" from="-334561591#1" to="1168541556" />
    <trip id="type2_6032" depart="5.26" departLane="best" departPos="random" departSpeed="max" from="98246944#4" to="-24791345#2" />
    <trip id="type2_6033" depart="5.42" departLane="best" departPos="random" departSpeed="max" from="376539200" to="-25054599" />
    <trip id="type2_6034" depart="5.58" departLane="best" departPos="random" departSpeed="max" from="1190782923" to="24405489#2" />
    <trip id="type2_6035" depart="5.75" departLane="best" departPos="random" departSpeed="max" from="-1190782924" to="1203849765" />
    <trip id="type2_6036" depart="5.91" departLane="best" departPos="random" departSpeed="max" from="-1094282287" to="668297056" />
    <trip id="type2_6037" depart="6.08" departLane="best" departPos="random" departSpeed="max" from="652044148" to="24683535#6" />
    <trip id="type2_6038" depart="6.24" departLane="best" departPos="random" departSpeed="max" from="25054594" to="25045235#0" />
    <trip id="type2_6040" depart="6.57" departLane="best" departPos="random" departSpeed="max" from="-302965727#2" to="1094282283" />
    <trip id="type2_6041" depart="6.73" departLane="best" departPos="random" departSpeed="max" from="-864273547" to="25035452#1" />
    <trip id="type2_6042" depart="6.90" departLane="best" departPos="random" departSpeed="max" from="25054228#2" to="24405519#2" />
    <trip id="type2_6043" depart="7.06" departLane="best" departPos="random" departSpeed="max" from="-107938350#3" to="-432770521#1" />
    <trip id="type2_6044" depart="7.23" departLane="best" departPos="random" departSpeed="max" from="24683557#1" to="432248099#7" />
    <trip id="type2_6045" depart="7.39" departLane="best" departPos="random" departSpeed="max" from="-1094282281" to="25044929#2" />
    <trip id="type2_6046" depart="7.55" departLane="best" departPos="random" departSpeed="max" from="-668297273" to="-432775732#0" />
    <trip id="type2_6047" depart="7.72" departLane="best" departPos="random" departSpeed="max" from="376543474#1" to="-376539193" />
    <trip id="type2_6048" depart="7.88" departLane="best" departPos="random" departSpeed="max" from="-24791340" to="24405497" />
    <trip id="type2_6049" depart="8.05" departLane="best" departPos="random" departSpeed="max" from="24699039#1" to="-25044576#3" />
    <trip id="type2_6050" depart="8.21" departLane="best" departPos="random" departSpeed="max" from="-999672219" to="-31896236#0" />
    <trip id="type2_6051" depart="8.38" departLane="best" departPos="random" departSpeed="max" from="25054594" to="-24405496" />
    <trip id="type2_6052" depart="8.54" departLane="best" departPos="random" departSpeed="max" from="372239261#1" to="1205167140" />
    <trip id="type2_6055" depart="9.03" departLane="best" departPos="random" departSpeed="max" from="-1380250680" to="-25042885" />
    <trip id="type2_6056" depart="9.20" departLane="best" departPos="random" departSpeed="max" from="-1203849763" to="199836131" />
    <trip id="type2_6057" depart="9.36" departLane="best" departPos="random" departSpeed="max" from="25042882#1" to="-24699030#2" />
    <trip id="type2_6058" depart="9.52" departLane="best" departPos="random" departSpeed="max" from="337312509#0" to="24405506#0" />
    <trip id="type2_6059" depart="9.69" departLane="best" departPos="random" departSpeed="max" from="334561891#0" to="-276636146#4" />
    <trip id="type2_6060" depart="9.85" departLane="best" departPos="random" departSpeed="max" from="-24699034" to="24683514#1" />
    <trip id="type2_6061" depart="10.02" departLane="best" departPos="random" departSpeed="max" from="432768291#1" to="1168541554" />
    <trip id="type2_6062" depart="10.18" departLane="best" departPos="random" departSpeed="max" from="-376542025#1" to="24405516#0" />
    <trip id="type2_6063" depart="10.35" departLane="best" departPos="random" departSpeed="max" from="-1094298146" to="-25045240" />
    <trip id="type2_6064" depart="10.51" departLane="best" departPos="random" departSpeed="max" from="-276636146#1" to="25054585#0" />
    <trip id="type2_6065" depart="10.67" departLane="best" departPos="random" departSpeed="max" from="-432770531#2" to="24791351" />
    <trip id="type2_6066" depart="10.84" departLane="best" departPos="random" departSpeed="max" from="-376543468" to="24683545" />
    <trip id="type2_6067" depart="11.00" departLane="best" departPos="random" departSpeed="max" from="1205662259#5" to="-199881960#0" />
    <trip id="type2_6068" depart="11.17" departLane="best" departPos="random" departSpeed="max" from="24405509#0" to="1168541553" />
    <trip id="type2_6069" depart="11.33" departLane="best" departPos="random" departSpeed="max" from="25042900#1" to="1168541556" />
    <trip id="type2_6070" depart="11.50" departLane="best" departPos="random" departSpeed="max" from="-1380250678" to="-24405506#3" />
    <trip id="type2_6071" depart="11.66" departLane="best" departPos="random" departSpeed="max" from="1216978710" to="25042889#0" />
    <trip id="type2_6072" depart="11.82" departLane="best" departPos="random" departSpeed="max" from="25054870#2" to="-25044934#0" />
    <trip id="type2_6073" depart="11.99" departLane="best" departPos="random" departSpeed="max" from="-1168542197" to="-25042906#0" />
    <trip id="type2_6074" depart="12.15" departLane="best" departPos="random" departSpeed="max" from="432807557" to="24683550#1" />
    <trip id="type2_6076" depart="12.48" departLane="best" departPos="random" departSpeed="max" from="24683556" to="31896239#0" />
    <trip id="type2_6077" depart="12.64" departLane="best" departPos="random" departSpeed="max" from="-24735611#1" to="535910621#4" />
    <trip id="type2_6078" depart="12.81" departLane="best" departPos="random" departSpeed="max" from="-432770531#0" to="25043182#2" />
    <trip id="type2_6080" depart="13.14" departLane="best" departPos="random" departSpeed="max" from="894591131" to="1205693235" />
    <trip id="type2_6081" depart="13.30" departLane="best" departPos="random" departSpeed="max" from="24405506#7" to="-24405519#1" />
    <trip id="type2_6082" depart="13.47" departLane="best" departPos="random" departSpeed="max" from="24735616#0" to="25042897" />
    <trip id="type2_6083" depart="13.63" departLane="best" departPos="random" departSpeed="max" from="31896236#2" to="25111486" />
    <trip id="type2_6084" depart="13.79" departLane="best" departPos="random" departSpeed="max" from="-24791575#3" to="25054596#4" />
    <trip id="type2_6085" depart="13.96" departLane="best" departPos="random" departSpeed="max" from="24405511#3" to="-24683611#1" />
    <trip id="type2_6086" depart="14.12" departLane="best" departPos="random" departSpeed="max" from="-1190782921" to="-25042914#1" />
    <trip id="type2_6087" depart="14.29" departLane="best" departPos="random" departSpeed="max" from="-24405487#1" to="24405489#2" />
    <trip id="type2_6088" depart="14.45" departLane="best" departPos="random" departSpeed="max" from="107938350#3" to="25043044#0" />
    <trip id="type2_6089" depart="14.62" departLane="best" departPos="random" departSpeed="max" from="-897097401#0" to="229472854" />
    <trip id="type2_6090" depart="14.78" departLane="best" departPos="random" departSpeed="max" from="1201838047" to="-24405520#0" />
    <trip id="type2_6091" depart="14.94" departLane="best" departPos="random" departSpeed="max" from="-855320888" to="199881960#3" />
    <trip id="type2_6093" depart="15.27" departLane="best" departPos="random" departSpeed="max" from="805508870#1" to="1094282288" />
    <trip id="type2_6094" depart="15.44" departLane="best" departPos="random" departSpeed="max" from="-1201877287" to="-24735612#1" />
    <trip id="type2_6095" depart="15.60" departLane="best" departPos="random" departSpeed="max" from="192145205" to="535570456#0" />
    <trip id="type2_6096" depart="15.77" departLane="best" departPos="random" departSpeed="max" from="-24683612#1" to="24791344#2" />
    <trip id="type2_6097" depart="15.93" departLane="best" departPos="random" departSpeed="max" from="1205662259#0" to="1201877287" />
    <trip id="type2_6098" depart="16.09" departLane="best" departPos="random" departSpeed="max" from="-334561591#0" to="-25054146#0" />
    <trip id="type2_6099" depart="16.26" departLane="best" departPos="random" departSpeed="max" from="-25042911#0" to="-25045240" />
    <trip id="type2_60100" depart="16.42" departLane="best" departPos="random" departSpeed="max" from="258647767#0" to="199881963" />
    <trip id="type2_60102" depart="16.75" departLane="best" departPos="random" departSpeed="max" from="-432777385#0" to="948224714" />
    <trip id="type2_60103" depart="16.91" departLane="best" departPos="random" departSpeed="max" from="276636146#1" to="25054593" />
    <trip id="type2_60104" depart="17.08" departLane="best" departPos="random" departSpeed="max" from="25042883" to="-626957571#0" />
    <trip id="type2_60105" depart="17.24" departLane="best" departPos="random" departSpeed="max" from="999668241" to="199836131" />
    <trip id="type2_60106" depart="17.41" departLane="best" departPos="random" departSpeed="max" from="-24699025#7" to="1168287297#0" />
    <trip id="type2_60108" depart="17.74" departLane="best" departPos="random" departSpeed="max" from="-854227946#1" to="-421121863#0" />
    <trip id="type2_60109" depart="17.90" departLane="best" departPos="random" departSpeed="max" from="24683520" to="432768291#5" />
    <trip id="type2_60110" depart="18.06" departLane="best" departPos="random" departSpeed="max" from="-1203849761" to="25044579" />
    <trip id="type2_60111" depart="18.23" departLane="best" departPos="random" departSpeed="max" from="376543469#1" to="24791345#3" />
    <trip id="type2_60112" depart="18.39" departLane="best" departPos="random" departSpeed="max" from="637275761#1" to="24405512#0" />
    <trip id="type2_60113" depart="18.56" departLane="best" departPos="random" departSpeed="max" from="-372239259#2" to="895263280" />
    <trip id="type2_60114" depart="18.72" departLane="best" departPos="random" departSpeed="max" from="369018506#0" to="-25054582#0" />
    <trip id="type2_60115" depart="18.89" departLane="best" departPos="random" departSpeed="max" from="-1216978711" to="25044929#2" />
    <trip id="type2_60118" depart="19.38" departLane="best" departPos="random" departSpeed="max" from="-25054141" to="24791575#3" />
    <trip id="type2_60120" depart="19.71" departLane="best" departPos="random" departSpeed="max" from="98246944#19-AddedOffRampEdge" to="431775783" />
    <trip id="type2_60121" depart="19.87" departLane="best" departPos="random" departSpeed="max" from="25043789" to="24683547#1" />
    <trip id="type2_60122" depart="20.03" departLane="best" departPos="random" departSpeed="max" from="293255732" to="25044582#1" />
    <trip id="type2_60123" depart="20.20" departLane="best" departPos="random" departSpeed="max" from="-24699034" to="376543476#0" />
    <trip id="type2_60124" depart="20.36" departLane="best" departPos="random" departSpeed="max" from="-1205693234#0" to="25054870#3" />
    <trip id="type2_60125" depart="20.53" departLane="best" departPos="random" departSpeed="max" from="-768280998" to="-25043045#0" />
    <trip id="type2_60126" depart="20.69" departLane="best" departPos="random" departSpeed="max" from="-25044582#1" to="-334561590" />
    <trip id="type2_60127" depart="20.86" departLane="best" departPos="random" departSpeed="max" from="1205662259#0" to="-24735606" />
    <trip id="type2_60129" depart="21.18" departLane="best" departPos="random" departSpeed="max" from="25054594" to="24683524#1" />
    <trip id="type2_60130" depart="21.35" departLane="best" departPos="random" departSpeed="max" from="107938377#3" to="-24683533#0" />
    <trip id="type2_60131" depart="21.51" departLane="best" departPos="random" departSpeed="max" from="24699027#2" to="27408614" />
    <trip id="type2_60132" depart="21.68" departLane="best" departPos="random" departSpeed="max" from="24405522#0" to="1223982208" />
    <trip id="type2_60133" depart="21.84" departLane="best" departPos="random" departSpeed="max" from="-1094282285" to="854227946#1" />
    <trip id="type2_60134" depart="22.01" departLane="best" departPos="random" departSpeed="max" from="-754427034#1" to="535910621#3" />
    <trip id="type2_60135" depart="22.17" departLane="best" departPos="random" departSpeed="max" from="-432770525" to="24735611#0" />
    <trip id="type2_60136" depart="22.33" departLane="best" departPos="random" departSpeed="max" from="25045240" to="-1094251933" />
    <trip id="type2_60137" depart="22.50" departLane="best" departPos="random" departSpeed="max" from="-1190782921" to="-24735603#0" />
    <trip id="type2_60138" depart="22.66" departLane="best" departPos="random" departSpeed="max" from="-895216896#0" to="-431827307#1" />
    <trip id="type2_60139" depart="22.83" departLane="best" departPos="random" departSpeed="max" from="-25046815#2" to="431775783" />
    <trip id="type2_60141" depart="23.15" departLane="best" departPos="random" departSpeed="max" from="1205693234#1" to="-24683560#0" />
    <trip id="type2_60142" depart="23.32" departLane="best" departPos="random" departSpeed="max" from="25044930#1" to="-107938377#4" />
    <trip id="type2_60143" depart="23.48" departLane="best" departPos="random" departSpeed="max" from="25042922#2" to="276626522" />
    <trip id="type2_60144" depart="23.65" departLane="best" departPos="random" departSpeed="max" from="-25046815#2" to="24405513" />
    <trip id="type2_60146" depart="23.98" departLane="best" departPos="random" departSpeed="max" from="-24405514#1" to="-637275761#1" />
    <trip id="type2_60147" depart="24.14" departLane="best" departPos="random" departSpeed="max" from="432768292#6" to="25054219#1" />
    <trip id="type2_60148" depart="24.30" departLane="best" departPos="random" departSpeed="max" from="-24699027#4" to="24405487#2" />
    <trip id="type2_60149" depart="24.47" departLane="best" departPos="random" departSpeed="max" from="-429529116" to="-25044576#1" />
    <trip id="type2_60150" depart="24.63" departLane="best" departPos="random" departSpeed="max" from="-1168541554" to="-24791344#0" />
    <trip id="type2_60151" depart="24.80" departLane="best" departPos="random" departSpeed="max" from="24699022#1" to="24699025#6" />
    <trip id="type2_60152" depart="24.96" departLane="best" departPos="random" departSpeed="max" from="24683533#0" to="-334561591#2" />
    <trip id="type2_60153" depart="25.13" departLane="best" departPos="random" departSpeed="max" from="-293256826#0" to="1205366652" />
    <trip id="type2_60154" depart="25.29" departLane="best" departPos="random" departSpeed="max" from="25111445#1" to="-25042908#1" />
    <trip id="type2_60155" depart="25.45" departLane="best" departPos="random" departSpeed="max" from="-432770531#3" to="25042899" />
    <trip id="type2_60156" depart="25.62" departLane="best" departPos="random" departSpeed="max" from="-24791337" to="25054595#7" />
    <trip id="type2_60157" depart="25.78" departLane="best" departPos="random" departSpeed="max" from="431827306#4" to="-660590671" />
    <trip id="type2_60158" depart="25.95" departLane="best" departPos="random" departSpeed="max" from="-25046811#2" to="-895216933#0" />
    <trip id="type2_60159" depart="26.11" departLane="best" departPos="random" departSpeed="max" from="432248098" to="24791344#2" />
    <trip id="type2_60161" depart="26.44" departLane="best" departPos="random" departSpeed="max" from="534900637#4" to="276636146#2" />
    <trip id="type2_60162" depart="26.60" departLane="best" departPos="random" departSpeed="max" from="-25042922#3" to="-431827304#4" />
    <trip id="type2_60163" depart="26.77" departLane="best" departPos="random" departSpeed="max" from="-1168544743#1" to="24683551#1" />
    <trip id="type2_60164" depart="26.93" departLane="best" departPos="random" departSpeed="max" from="-420904972#1" to="-24405496" />
    <trip id="type2_60165" depart="27.10" departLane="best" departPos="random" departSpeed="max" from="-1094282281" to="-24735603#0" />
    <trip id="type2_60167" depart="27.42" departLane="best" departPos="random" departSpeed="max" from="432762971" to="24405511#3" />
    <trip id="type2_60168" depart="27.59" departLane="best" departPos="random" departSpeed="max" from="-24699035" to="24405487#0" />
    <trip id="type2_60169" depart="27.75" departLane="best" departPos="random" departSpeed="max" from="429690524#1" to="874437282" />
    <trip id="type2_60171" depart="28.08" departLane="best" departPos="random" departSpeed="max" from="-1205167140" to="-376541646" />
    <trip id="type2_60172" depart="28.25" departLane="best" departPos="random" departSpeed="max" from="-25042915#4" to="-895216932#1" />
    <trip id="type2_60173" depart="28.41" departLane="best" departPos="random" departSpeed="max" from="372239264#2" to="-25054870#0" />
    <trip id="type2_60174" depart="28.57" departLane="best" departPos="random" departSpeed="max" from="-660590672" to="-302965728#0" />
    <trip id="type2_60175" depart="28.74" departLane="best" departPos="random" departSpeed="max" from="-24683545" to="-31896239#0" />
    <trip id="type2_60176" depart="28.90" departLane="best" departPos="random" departSpeed="max" from="-25042891#2" to="535566679#1-AddedOffRampEdge" />
    <trip id="type2_60177" depart="29.07" departLane="best" departPos="random" departSpeed="max" from="98246921" to="894591169" />
    <trip id="type2_60178" depart="29.23" departLane="best" departPos="random" departSpeed="max" from="25046412#1" to="24791338#1" />
    <trip id="type2_60179" depart="29.40" departLane="best" departPos="random" departSpeed="max" from="-25044930#0" to="-668297058" />
    <trip id="type2_60180" depart="29.56" departLane="best" departPos="random" departSpeed="max" from="-376543464#2" to="1216978708" />
    <trip id="type2_60182" depart="29.89" departLane="best" departPos="random" departSpeed="max" from="107938391#0" to="-854227944" />
    <trip id="type2_60183" depart="30.05" departLane="best" departPos="random" departSpeed="max" from="-25054596#4" to="24405497" />
    <trip id="type2_60184" depart="30.22" departLane="best" departPos="random" departSpeed="max" from="-334561591#5" to="-293256888" />
    <trip id="type2_60185" depart="30.38" departLane="best" departPos="random" departSpeed="max" from="24735607#0" to="376543471" />
    <trip id="type2_60186" depart="30.54" departLane="best" departPos="random" departSpeed="max" from="-1201612997" to="337623511#1" />
    <trip id="type2_60187" depart="30.71" departLane="best" departPos="random" departSpeed="max" from="376539202" to="24699025#7" />
    <trip id="type2_60188" depart="30.87" departLane="best" departPos="random" departSpeed="max" from="25046431" to="535554959#0" />
    <trip id="type2_60190" depart="31.20" departLane="best" departPos="random" departSpeed="max" from="25054596#0" to="-25046403#0" />
    <trip id="type2_60191" depart="31.37" departLane="best" departPos="random" departSpeed="max" from="24783924#6" to="-334561590" />
    <trip id="type2_60192" depart="31.53" departLane="best" departPos="random" departSpeed="max" from="24699025#10" to="535569073" />
    <trip id="type2_60193" depart="31.69" departLane="best" departPos="random" departSpeed="max" from="-25043043#1" to="-599922731" />
    <trip id="type2_60194" depart="31.86" departLane="best" departPos="random" departSpeed="max" from="-668297273" to="431827297#1" />
    <trip id="type2_60195" depart="32.02" departLane="best" departPos="random" departSpeed="max" from="25042896#0" to="-754427031#0" />
    <trip id="type2_60196" depart="32.19" departLane="best" departPos="random" departSpeed="max" from="-25046428" to="25042887#4" />
    <trip id="type2_60197" depart="32.35" departLane="best" departPos="random" departSpeed="max" from="-24735612#1" to="-293255732" />
    <trip id="type2_60198" depart="32.52" departLane="best" departPos="random" departSpeed="max" from="-25054582#1" to="-276636146#0" />
    <trip id="type2_60199" depart="32.68" departLane="best" departPos="random" departSpeed="max" from="25054871#0" to="1190782927" />
    <trip id="type2_60200" depart="32.84" departLane="best" departPos="random" departSpeed="max" from="-24683539" to="337312509#1" />
    <trip id="type2_60201" depart="33.01" departLane="best" departPos="random" departSpeed="max" from="-25054596#1" to="432768292#2" />
    <trip id="type2_60202" depart="33.17" departLane="best" departPos="random" departSpeed="max" from="199881967#0" to="-199568036#0" />
    <trip id="type2_60204" depart="33.50" departLane="best" departPos="random" departSpeed="max" from="1094268118#1" to="-293255730#0" />
    <trip id="type2_60206" depart="33.83" departLane="best" departPos="random" departSpeed="max" from="24699029#3" to="25054228#2" />
    <trip id="type2_60207" depart="33.99" departLane="best" departPos="random" departSpeed="max" from="-376545742" to="-895216932#1" />
    <trip id="type2_60208" depart="34.16" departLane="best" departPos="random" departSpeed="max" from="-229472853#1" to="-24405506#4" />
    <trip id="type2_60209" depart="34.32" departLane="best" departPos="random" departSpeed="max" from="334561590" to="-25042920#2" />
    <trip id="type2_60210" depart="34.49" departLane="best" departPos="random" departSpeed="max" from="1203013857" to="24683612#0" />
    <trip id="type2_60211" depart="34.65" departLane="best" departPos="random" departSpeed="max" from="-1205662257#4" to="1168542191#1" />
    <trip id="type2_60212" depart="34.81" departLane="best" departPos="random" departSpeed="max" from="25042896#2" to="1203856562" />
    <trip id="type2_60213" depart="34.98" departLane="best" departPos="random" departSpeed="max" from="-229472854" to="1168541553" />
    <trip id="type2_60214" depart="35.14" departLane="best" departPos="random" departSpeed="max" from="-24699032#1" to="293255730#1" />
    <trip id="type2_60215" depart="35.31" departLane="best" departPos="random" departSpeed="max" from="293255910#0" to="24735607#2" />
    <trip id="type2_60216" depart="35.47" departLane="best" departPos="random" departSpeed="max" from="-25054219#0" to="-999672221" />
    <trip id="type2_60217" depart="35.64" departLane="best" departPos="random" departSpeed="max" from="-24699041#2" to="-25044574#0" />
    <trip id="type2_60218" depart="35.80" departLane="best" departPos="random" departSpeed="max" from="-420905006#0" to="1190782927" />
    <trip id="type2_60219" depart="35.96" departLane="best" departPos="random" departSpeed="max" from="-25042920#1" to="24683544" />
    <trip id="type2_60220" depart="36.13" departLane="best" departPos="random" departSpeed="max" from="-421121876#1" to="376543464#2" />
    <trip id="type2_60221" depart="36.29" departLane="best" departPos="random" departSpeed="max" from="431994306" to="334561591#6" />
    <trip id="type2_60222" depart="36.46" departLane="best" departPos="random" departSpeed="max" from="431775778" to="334559786" />
    <trip id="type2_60223" depart="36.62" departLane="best" departPos="random" departSpeed="max" from="-25043040" to="1094298144" />
    <trip id="type2_60224" depart="36.79" departLane="best" departPos="random" departSpeed="max" from="276636146#6" to="-25042884" />
    <trip id="type2_60225" depart="36.95" departLane="best" departPos="random" departSpeed="max" from="-895216913#1" to="302965727#14" />
    <trip id="type2_60226" depart="37.11" departLane="best" departPos="random" departSpeed="max" from="24699031#1" to="24683539" />
    <trip id="type2_60227" depart="37.28" departLane="best" departPos="random" departSpeed="max" from="999672222" to="-24683522" />
    <trip id="type2_60228" depart="37.44" departLane="best" departPos="random" departSpeed="max" from="107938377#1" to="535910621#1-AddedOffRampEdge" />
    <trip id="type2_60230" depart="37.77" departLane="best" departPos="random" departSpeed="max" from="-372239266#1" to="-25044576#1" />
    <trip id="type2_60231" depart="37.93" departLane="best" departPos="random" departSpeed="max" from="1168311253#1" to="637275764#1" />
    <trip id="type2_60233" depart="38.26" departLane="best" departPos="random" departSpeed="max" from="24791350#0" to="-854227948" />
    <trip id="type2_60234" depart="38.43" departLane="best" departPos="random" departSpeed="max" from="-24783924#5" to="1203849759" />
    <trip id="type2_60235" depart="38.59" departLane="best" departPos="random" departSpeed="max" from="-25043045#1" to="25054223#3" />
    <trip id="type2_60236" depart="38.76" departLane="best" departPos="random" departSpeed="max" from="432768292#6" to="-25054224#2" />
    <trip id="type2_60237" depart="38.92" departLane="best" departPos="random" departSpeed="max" from="-894591202#0" to="754427029#1" />
    <trip id="type2_60238" depart="39.08" departLane="best" departPos="random" departSpeed="max" from="1205662257#0" to="25054582#2" />
    <trip id="type2_60240" depart="39.41" departLane="best" departPos="random" departSpeed="max" from="-25042922#2" to="-302965727#12" />
    <trip id="type2_60241" depart="39.58" departLane="best" departPos="random" departSpeed="max" from="-25035452#1" to="-376541644" />
    <trip id="type2_60243" depart="39.91" departLane="best" departPos="random" departSpeed="max" from="24683548" to="-854227951#0" />
    <trip id="type2_60244" depart="40.07" departLane="best" departPos="random" departSpeed="max" from="24699030#0" to="25054869" />
    <trip id="type2_60245" depart="40.23" departLane="best" departPos="random" departSpeed="max" from="-302965727#3" to="-107938350#4" />
    <trip id="type2_60246" depart="40.40" departLane="best" departPos="random" departSpeed="max" from="-754427033" to="422730660#1" />
    <trip id="type2_60247" depart="40.56" departLane="best" departPos="random" departSpeed="max" from="-24735618#2" to="-24683550#1" />
    <trip id="type2_60248" depart="40.73" departLane="best" departPos="random" departSpeed="max" from="-999609883#1" to="376543466#2" />