<?xml version='1.0' encoding='UTF-8'?>
<trips><trip id="roi_trip_0" type="veh_passenger" depart="0.0" from="199885791" to="1205679702#1" /><trip id="roi_trip_1" type="veh_passenger" depart="60.0" from="1168283956" to="431981408#0" /><trip id="roi_trip_2" type="veh_passenger" depart="120.0" from="24160010" to="535922410-AddedOnRampEdge" /><trip id="roi_trip_3" type="veh_passenger" depart="180.0" from="431981408#0" to="199885791" /><trip id="roi_trip_4" type="veh_passenger" depart="240.0" from="24160007#1" to="431981407" /><trip id="roi_trip_5" type="veh_passenger" depart="300.0" from="24160009" to="535922409" /><trip id="roi_trip_6" type="veh_passenger" depart="360.0" from="423997744" to="24160011" /><trip id="roi_trip_7" type="veh_passenger" depart="420.0" from="24160011" to="199885791" /><trip id="roi_trip_8" type="veh_passenger" depart="480.0" from="1205679702#1" to="98246932" /><trip id="roi_trip_9" type="veh_passenger" depart="540.0" from="-1205679702#0" to="1205679702#1" /><trip id="roi_trip_10" type="veh_passenger" depart="600.0" from="24160007#1" to="25042886" /><trip id="roi_trip_11" type="veh_passenger" depart="660.0" from="-1205679702#1" to="431989326" /><trip id="roi_trip_12" type="veh_passenger" depart="720.0" from="24160012#1" to="423997744" /><trip id="roi_trip_13" type="veh_passenger" depart="780.0" from="24160010" to="199885791" /><trip id="roi_trip_14" type="veh_passenger" depart="840.0" from="428326182" to="24160012#1" /><trip id="roi_trip_15" type="veh_passenger" depart="900.0" from="24160007#2" to="199885792" /><trip id="roi_trip_16" type="veh_passenger" depart="960.0" from="535922409" to="-1205679702#1" /><trip id="roi_trip_17" type="veh_passenger" depart="1020.0" from="431981408#0" to="535922410-AddedOnRampEdge" /><trip id="roi_trip_18" type="veh_passenger" depart="1080.0" from="25042886" to="24160007#2" /><trip id="roi_trip_19" type="veh_passenger" depart="1140.0" from="535922409" to="24160008" /><trip id="roi_trip_20" type="veh_passenger" depart="1200.0" from="24160007#1" to="535922409" /><trip id="roi_trip_21" type="veh_passenger" depart="1260.0" from="1163917760" to="-1205679702#1" /><trip id="roi_trip_22" type="veh_passenger" depart="1320.0" from="24160010" to="25042886" /><trip id="roi_trip_23" type="veh_passenger" depart="1380.0" from="24160012#1" to="24160020" /><trip id="roi_trip_24" type="veh_passenger" depart="1440.0" from="24160007#2" to="431981407" /><trip id="roi_trip_25" type="veh_passenger" depart="1500.0" from="24160008" to="24160012#1" /><trip id="roi_trip_26" type="veh_passenger" depart="1560.0" from="24160020" to="895708421" /><trip id="roi_trip_27" type="veh_passenger" depart="1620.0" from="-1205679702#0" to="895708421" /><trip id="roi_trip_28" type="veh_passenger" depart="1680.0" from="431981408#0" to="423997744" /><trip id="roi_trip_29" type="veh_passenger" depart="1740.0" from="314066421-AddedOffRampEdge" to="1168273992-AddedOffRampEdge" /><trip id="roi_trip_30" type="veh_passenger" depart="1800.0" from="24160008" to="535922410-AddedOnRampEdge" /><trip id="roi_trip_31" type="veh_passenger" depart="1860.0" from="24160011" to="-1205679702#1" /><trip id="roi_trip_32" type="veh_passenger" depart="1920.0" from="535922410-AddedOnRampEdge" to="428326182" /><trip id="roi_trip_33" type="veh_passenger" depart="1980.0" from="199885792" to="24160007#1" /><trip id="roi_trip_34" type="veh_passenger" depart="2040.0" from="431981408#0" to="24160009" /><trip id="roi_trip_35" type="veh_passenger" depart="2100.0" from="98246932" to="1205679702#0" /><trip id="roi_trip_36" type="veh_passenger" depart="2160.0" from="24160008" to="98246932" /><trip id="roi_trip_37" type="veh_passenger" depart="2220.0" from="1168283956" to="24160008" /><trip id="roi_trip_38" type="veh_passenger" depart="2280.0" from="535922410-AddedOnRampEdge" to="25042886" /><trip id="roi_trip_39" type="veh_passenger" depart="2340.0" from="314066421-AddedOffRampEdge" to="24160010" /><trip id="roi_trip_40" type="veh_passenger" depart="2400.0" from="1205679702#0" to="314066421-AddedOffRampEdge" /><trip id="roi_trip_41" type="veh_passenger" depart="2460.0" from="535922409" to="24160011" /><trip id="roi_trip_42" type="veh_passenger" depart="2520.0" from="-1205679702#0" to="25042886" /><trip id="roi_trip_43" type="veh_passenger" depart="2580.0" from="24160007#2" to="24160010" /><trip id="roi_trip_44" type="veh_passenger" depart="2640.0" from="428326182" to="199885792" /><trip id="roi_trip_45" type="veh_passenger" depart="2700.0" from="24160010" to="535922409" /><trip id="roi_trip_46" type="veh_passenger" depart="2760.0" from="423997744" to="24160009" /><trip id="roi_trip_47" type="veh_passenger" depart="2820.0" from="423997744" to="24160012#1" /><trip id="roi_trip_48" type="veh_passenger" depart="2880.0" from="1168273992-AddedOffRampEdge" to="1168283956" /><trip id="roi_trip_49" type="veh_passenger" depart="2940.0" from="24160009" to="-1205679702#1" /><trip id="roi_trip_50" type="veh_passenger" depart="3000.0" from="24160007#2" to="895708421" /><trip id="roi_trip_51" type="veh_passenger" depart="3060.0" from="1168109380" to="24160020" /><trip id="roi_trip_52" type="veh_passenger" depart="3120.0" from="1168283956" to="895708421" /><trip id="roi_trip_53" type="veh_passenger" depart="3180.0" from="98246932" to="24160012#1" /><trip id="roi_trip_54" type="veh_passenger" depart="3240.0" from="535922409" to="24160011" /><trip id="roi_trip_55" type="veh_passenger" depart="3300.0" from="431981407" to="24160007#2" /><trip id="roi_trip_56" type="veh_passenger" depart="3360.0" from="24160009" to="428326182" /><trip id="roi_trip_57" type="veh_passenger" depart="3420.0" from="24160007#0" to="24160009" /><trip id="roi_trip_58" type="veh_passenger" depart="3480.0" from="535922410" to="24160010" /><trip id="roi_trip_59" type="veh_passenger" depart="3540.0" from="535922410" to="199885791" /></trips>