<?xml version="1.0" encoding="UTF-8"?>

<!-- generated on 2025-05-04 10:06:47 by Eclipse SUMO netconvert Version 1.18.0
<configuration xmlns:xsi="http://www.w3.org/2001/XMLSchema-instance" xsi:noNamespaceSchemaLocation="http://sumo.dlr.de/xsd/netconvertConfiguration.xsd">

    <input>
        <type-files value="input/simon_bolivar.typ.xml"/>
        <osm-files value="input/simon_bolivar.osm.xml"/>
    </input>

    <output>
        <output-file value="input/simon_bolivar.net.xml"/>
        <plain-output-prefix value="input/simon_bolivar_plain"/>
    </output>

    <projection>
        <proj.utm value="true"/>
    </projection>

    <processing>
        <geometry.remove value="true"/>
    </processing>

    <tls_building>
        <tls.guess value="true"/>
    </tls_building>

    <ramp_guessing>
        <ramps.guess value="true"/>
    </ramp_guessing>

    <report>
        <verbose value="true"/>
    </report>

</configuration>
-->

<nodes version="1.16" xmlns:xsi="http://www.w3.org/2001/XMLSchema-instance" xsi:noNamespaceSchemaLocation="http://sumo.dlr.de/xsd/nodes_file.xsd">
    <location netOffset="-777596.93,30683.41" convBoundary="0.00,0.00,5445.97,7687.09" origBoundary="-78.506078,-0.277333,-78.457181,-0.207850" projParameter="+proj=utm +zone=17 +ellps=WGS84 +datum=WGS84 +units=m +no_defs"/>

    <node id="10005095833" x="794.21" y="3944.42" type="priority"/>
    <node id="10005120997" x="674.20" y="3822.84" type="priority"/>
    <node id="10021631207" x="2079.52" y="3542.70" type="priority"/>
    <node id="10021676602" x="1186.99" y="3989.18" type="priority"/>
    <node id="10021676606" x="925.92" y="3565.74" type="priority"/>
    <node id="10021728842" x="1636.88" y="3980.94" type="priority"/>
    <node id="10021765829" x="1365.01" y="3708.61" type="priority"/>
    <node id="10021765832" x="1167.80" y="3453.36" type="priority"/>
    <node id="10021867882" x="2259.77" y="3973.26" type="priority"/>
    <node id="10021877724" x="2656.15" y="3423.64" type="priority"/>
    <node id="10021877728" x="2626.88" y="3720.66" type="priority"/>
    <node id="10021877729" x="2626.74" y="3712.42" type="priority"/>
    <node id="10021877737" x="1978.01" y="3701.06" type="priority"/>
    <node id="10021909613" x="2925.21" y="3260.21" type="priority"/>
    <node id="10021934917" x="2192.16" y="3482.89" type="priority"/>
    <node id="10021934918" x="2138.25" y="3374.37" type="priority"/>
    <node id="10021934922" x="2546.65" y="3400.40" type="priority"/>
    <node id="10021934923" x="2553.20" y="3402.71" type="priority"/>
    <node id="10021934928" x="2641.40" y="3401.11" type="priority"/>
    <node id="10021934933" x="2488.55" y="3640.41" type="priority"/>
    <node id="10021984451" x="3656.03" y="3953.59" type="priority"/>
    <node id="10021991345" x="3279.72" y="3146.17" type="priority"/>
    <node id="10021991346" x="3037.92" y="3613.11" type="priority"/>
    <node id="10022312825" x="2799.15" y="5035.60" type="priority"/>
    <node id="10022312826" x="2658.53" y="5066.17" type="priority"/>
    <node id="10022312827" x="2667.44" y="4959.02" type="priority"/>
    <node id="10022351145" x="2637.58" y="4345.94" type="priority"/>
    <node id="10022351153" x="2113.79" y="4468.47" type="priority"/>
    <node id="10022424235" x="1904.22" y="4407.58" type="priority"/>
    <node id="10024779218" x="2085.47" y="5317.26" type="priority"/>
    <node id="10075452936" x="571.05" y="3780.77" type="priority"/>
    <node id="10075460335" x="601.41" y="3665.87" type="priority"/>
    <node id="10075460348" x="716.68" y="3522.28" type="priority"/>
    <node id="10075469696" x="583.71" y="3726.84" type="priority"/>
    <node id="10075469699" x="536.57" y="3764.53" type="dead_end"/>
    <node id="10656361693" x="545.73" y="5375.09" type="priority"/>
    <node id="10656361694" x="592.27" y="5364.66" type="priority"/>
    <node id="10656361695" x="549.54" y="5394.29" type="priority"/>
    <node id="10656361696" x="596.28" y="5384.52" type="priority"/>
    <node id="10656361697" x="554.21" y="5412.75" type="priority"/>
    <node id="10656361698" x="599.34" y="5401.30" type="priority"/>
    <node id="10656361699" x="536.04" y="5330.78" type="priority"/>
    <node id="10656361700" x="584.21" y="5321.78" type="priority"/>
    <node id="10863411203" x="2432.43" y="4706.20" type="priority"/>
    <node id="10863411204" x="2429.60" y="4760.95" type="priority"/>
    <node id="10863417306" x="2441.71" y="4811.10" type="priority"/>
    <node id="10864987273" x="1653.73" y="4718.00" type="dead_end"/>
    <node id="10865047477" x="2607.84" y="3753.71" type="right_before_left"/>
    <node id="10865047481" x="2634.41" y="3735.38" type="priority"/>
    <node id="10865047484" x="2608.93" y="3828.67" type="priority"/>
    <node id="10865125262" x="2412.26" y="4794.19" type="priority"/>
    <node id="10865125263" x="2385.99" y="4800.72" type="dead_end"/>
    <node id="10865125264" x="2400.25" y="4822.00" type="priority"/>
    <node id="10865210587" x="740.39" y="5053.61" type="priority"/>
    <node id="10865210588" x="763.96" y="5071.60" type="priority"/>
    <node id="10865210589" x="768.31" y="5064.53" type="dead_end"/>
    <node id="10865210590" x="2405.56" y="4852.61" type="priority"/>
    <node id="10865210598" x="2381.80" y="4827.84" type="priority"/>
    <node id="10865258510" x="584.95" y="5346.68" type="priority"/>
    <node id="10865258511" x="604.85" y="5339.37" type="priority"/>
    <node id="10865906254" x="478.55" y="3593.01" type="priority"/>
    <node id="10865906259" x="569.52" y="3594.04" type="priority"/>
    <node id="10865998588" x="1026.21" y="3734.31" type="dead_end"/>
    <node id="10865998589" x="1039.35" y="3725.90" type="priority"/>
    <node id="10865998590" x="1046.00" y="3729.86" type="dead_end"/>
    <node id="10867334297" x="951.03" y="3869.51" type="priority"/>
    <node id="10867334298" x="959.15" y="3876.46" type="dead_end"/>
    <node id="10867459581" x="4050.95" y="3445.30" type="right_before_left"/>
    <node id="10867459583" x="4037.97" y="3508.95" type="right_before_left"/>
    <node id="10867459586" x="3974.80" y="3410.00" type="priority"/>
    <node id="10867459587" x="3977.03" y="3389.37" type="priority"/>
    <node id="10867459588" x="3933.87" y="3429.29" type="right_before_left"/>
    <node id="10867459589" x="3922.36" y="3414.91" type="right_before_left"/>
    <node id="10867459590" x="3930.01" y="3452.17" type="priority"/>
    <node id="10867459595" x="4009.40" y="3331.38" type="priority"/>
    <node id="10867459596" x="4029.77" y="3419.04" type="priority"/>
    <node id="10867459597" x="4040.03" y="3383.22" type="right_before_left"/>
    <node id="10867459598" x="4212.90" y="3440.96" type="priority"/>
    <node id="10867459604" x="4065.43" y="3458.87" type="right_before_left"/>
    <node id="10867539878" x="3825.24" y="3456.80" type="right_before_left"/>
    <node id="10867539880" x="3712.80" y="3440.10" type="priority"/>
    <node id="10867539900" x="3890.11" y="3440.58" type="priority"/>
    <node id="10867539901" x="3870.72" y="3428.48" type="right_before_left"/>
    <node id="10867550608" x="3789.92" y="3695.66" type="priority"/>
    <node id="10867550610" x="3781.14" y="3646.24" type="right_before_left"/>
    <node id="10867550611" x="3768.11" y="3688.54" type="priority"/>
    <node id="10867550613" x="3768.24" y="3641.87" type="right_before_left"/>
    <node id="10867550617" x="3863.73" y="3773.69" type="priority"/>
    <node id="10867550631" x="3801.49" y="3829.31" type="priority"/>
    <node id="10867550632" x="3857.20" y="3980.23" type="priority"/>
    <node id="10867550639" x="3974.37" y="4164.74" type="priority"/>
    <node id="10867567207" x="4058.45" y="3396.77" type="right_before_left"/>
    <node id="10867567208" x="4020.35" y="3369.19" type="right_before_left"/>
    <node id="10867567212" x="3895.10" y="3394.96" type="right_before_left"/>
    <node id="10867567214" x="3987.64" y="3422.61" type="right_before_left"/>
    <node id="10867567215" x="3999.43" y="3362.52" type="right_before_left"/>
    <node id="10867567219" x="3867.08" y="3397.65" type="priority"/>
    <node id="10867567220" x="3855.61" y="3481.98" type="priority"/>
    <node id="10884490881" x="336.26" y="5075.13" type="dead_end"/>
    <node id="10906053706" x="579.26" y="5300.94" type="priority"/>
    <node id="10906053707" x="532.19" y="5313.73" type="priority"/>
    <node id="11056414794" x="2294.91" y="4556.44" type="priority"/>
    <node id="11056414795" x="2344.49" y="4936.20" type="priority"/>
    <node id="11056414797" x="2415.36" y="4718.85" type="priority"/>
    <node id="11056414798" x="2382.84" y="4716.89" type="priority"/>
    <node id="11056414799" x="2180.10" y="4541.99" type="priority"/>
    <node id="11056414803" x="2176.23" y="4557.13" type="priority"/>
    <node id="11056414804" x="2190.40" y="4560.55" type="priority"/>
    <node id="11056424405" x="2170.77" y="4572.93" type="priority"/>
    <node id="11056424406" x="2187.16" y="4576.43" type="priority"/>
    <node id="11056424407" x="2168.46" y="4588.06" type="priority"/>
    <node id="11056424414" x="2223.72" y="4618.13" type="priority"/>
    <node id="11140455070" x="2173.44" y="4839.04" type="priority"/>
    <node id="11140455076" x="2443.38" y="4962.29" type="priority"/>
    <node id="11140455077" x="2048.73" y="4923.78" type="priority"/>
    <node id="11140455079" x="2132.35" y="4875.71" type="priority"/>
    <node id="11140552598" x="2481.76" y="5497.84" type="priority"/>
    <node id="11140576105" x="2453.16" y="5455.62" type="priority"/>
    <node id="11142660016" x="1992.84" y="4792.78" type="priority"/>
    <node id="11142660024" x="2012.09" y="4603.94" type="priority"/>
    <node id="11142660029" x="2049.56" y="4575.40" type="right_before_left"/>
    <node id="11142660038" x="1995.92" y="4695.73" type="priority"/>
    <node id="11142660039" x="2162.85" y="5106.86" type="priority"/>
    <node id="11142758369" x="1924.07" y="5286.88" type="priority"/>
    <node id="11142758370" x="1902.02" y="5250.27" type="priority"/>
    <node id="11142758371" x="2059.99" y="5234.18" type="priority"/>
    <node id="11142758379" x="2033.16" y="5273.76" type="priority"/>
    <node id="11142758380" x="1987.99" y="5203.70" type="priority"/>
    <node id="11142758381" x="1662.94" y="5027.61" type="priority"/>
    <node id="11142758382" x="1663.99" y="5054.16" type="priority"/>
    <node id="11142758385" x="2123.76" y="5179.57" type="priority"/>
    <node id="11142820860" x="1676.59" y="5103.69" type="priority"/>
    <node id="11142820861" x="1638.89" y="5108.96" type="priority"/>
    <node id="11142820864" x="1672.70" y="5078.97" type="priority"/>
    <node id="11142820870" x="1705.01" y="5071.06" type="priority"/>
    <node id="11143088260" x="2352.34" y="4584.10" type="priority"/>
    <node id="11143098456" x="692.72" y="3352.76" type="priority"/>
    <node id="11143098460" x="681.83" y="3383.26" type="priority"/>
    <node id="11143188254" x="1742.54" y="5107.52" type="priority"/>
    <node id="11143188255" x="1757.74" y="5149.40" type="priority"/>
    <node id="11143188262" x="1814.53" y="5014.42" type="priority"/>
    <node id="11152142741" x="2303.61" y="3811.53" type="priority"/>
    <node id="11152142745" x="2337.41" y="3765.66" type="priority"/>
    <node id="11152142746" x="2270.02" y="4338.05" type="priority"/>
    <node id="11152561558" x="1612.33" y="3260.01" type="priority"/>
    <node id="11155047125" x="2106.86" y="3466.43" type="priority"/>
    <node id="11155047126" x="2076.58" y="3403.82" type="priority"/>
    <node id="11155122606" x="2427.83" y="3222.89" type="priority"/>
    <node id="11158303628" x="1189.66" y="4048.97" type="priority"/>
    <node id="11158303631" x="1195.59" y="4080.29" type="right_before_left"/>
    <node id="11158303633" x="1170.36" y="4144.03" type="right_before_left"/>
    <node id="11158303638" x="1173.85" y="4114.56" type="priority"/>
    <node id="11158303644" x="1123.97" y="4107.63" type="priority"/>
    <node id="11158303654" x="1122.09" y="4110.00" type="right_before_left"/>
    <node id="11158303655" x="1129.62" y="4119.01" type="right_before_left"/>
    <node id="11158369975" x="787.66" y="3817.29" type="priority"/>
    <node id="11158369976" x="775.97" y="3768.86" type="priority"/>
    <node id="11160026805" x="1426.79" y="4159.58" type="priority"/>
    <node id="11160026806" x="1422.81" y="4179.91" type="priority"/>
    <node id="11168707510" x="1441.72" y="5313.80" type="priority"/>
    <node id="11168790447" x="1234.50" y="4994.11" type="priority"/>
    <node id="11168790448" x="1286.32" y="5031.92" type="priority"/>
    <node id="11168790449" x="1468.70" y="4878.49" type="priority"/>
    <node id="11169216079" x="3998.46" y="3646.47" type="priority"/>
    <node id="11169216080" x="4012.63" y="3688.43" type="right_before_left"/>
    <node id="11170870745" x="2812.17" y="3260.80" type="priority"/>
    <node id="11170870746" x="2807.17" y="3220.19" type="priority"/>
    <node id="11170870748" x="2587.20" y="3213.51" type="priority"/>
    <node id="11170870752" x="2559.14" y="3206.13" type="priority"/>
    <node id="11170883090" x="2861.37" y="3150.85" type="priority"/>
    <node id="11170883093" x="2880.94" y="3176.20" type="priority"/>
    <node id="11170896511" x="4038.75" y="4307.07" type="priority"/>
    <node id="11170991545" x="3730.23" y="4048.80" type="priority"/>
    <node id="11171473140" x="3472.72" y="3615.71" type="priority"/>
    <node id="11171473150" x="3512.55" y="3694.65" type="priority"/>
    <node id="11173181425" x="3954.65" y="3504.22" type="priority"/>
    <node id="11173181429" x="3936.30" y="3457.67" type="priority"/>
    <node id="11173181434" x="3917.57" y="3440.27" type="priority"/>
    <node id="11173225143" x="3923.30" y="3439.53" type="priority"/>
    <node id="11173248421" x="3895.75" y="3303.62" type="priority"/>
    <node id="11173248566" x="3096.76" y="4698.40" type="priority"/>
    <node id="11173248567" x="3137.29" y="4651.03" type="right_before_left"/>
    <node id="11173248576" x="3138.92" y="4577.87" type="right_before_left"/>
    <node id="11173346311" x="2584.14" y="4427.82" type="priority"/>
    <node id="11173346312" x="2537.70" y="4430.50" type="priority"/>
    <node id="11173346315" x="2560.84" y="4409.28" type="right_before_left"/>
    <node id="11173346319" x="3211.11" y="4531.66" type="priority"/>
    <node id="11173346320" x="2665.97" y="4392.55" type="priority"/>
    <node id="11173346325" x="2688.65" y="4108.80" type="priority"/>
    <node id="11173346326" x="2713.60" y="4076.40" type="priority"/>
    <node id="11173346327" x="2698.96" y="3743.12" type="priority"/>
    <node id="11173433549" x="3117.86" y="4659.33" type="right_before_left"/>
    <node id="11173433568" x="3277.53" y="5096.76" type="priority"/>
    <node id="11173433571" x="3273.79" y="5114.46" type="priority"/>
    <node id="11173458777" x="3002.19" y="4943.50" type="priority"/>
    <node id="11173458780" x="3005.86" y="4974.21" type="priority"/>
    <node id="11173458785" x="3165.59" y="4873.73" type="priority"/>
    <node id="11173458787" x="3335.78" y="5136.63" type="priority"/>
    <node id="11173458788" x="3355.96" y="5167.04" type="priority"/>
    <node id="11173458789" x="3309.37" y="5188.35" type="priority"/>
    <node id="11173458791" x="3246.31" y="5194.81" type="priority"/>
    <node id="11173641946" x="2970.77" y="5471.91" type="priority"/>
    <node id="11173641948" x="3270.75" y="5106.83" type="priority"/>
    <node id="11173690553" x="2733.42" y="4271.32" type="priority"/>
    <node id="11173690558" x="3096.41" y="4494.68" type="priority"/>
    <node id="11173764767" x="2754.40" y="3307.09" type="priority"/>
    <node id="11175743811" x="1457.88" y="3751.83" type="priority"/>
    <node id="11182274978" x="3340.34" y="4683.47" type="priority"/>
    <node id="11182274979" x="3284.10" y="4703.84" type="priority"/>
    <node id="11182274980" x="3098.88" y="4603.77" type="priority"/>
    <node id="11182274984" x="3090.46" y="4629.11" type="priority"/>
    <node id="11182274985" x="3102.36" y="4622.99" type="right_before_left"/>
    <node id="11189886312" x="3560.56" y="3455.78" type="priority"/>
    <node id="11189886317" x="3577.61" y="3497.59" type="priority"/>
    <node id="11189886319" x="3925.71" y="3436.47" type="right_before_left"/>
    <node id="11223716718" x="3958.28" y="3417.78" type="right_before_left"/>
    <node id="11223716719" x="3949.74" y="3402.13" type="right_before_left"/>
    <node id="11224273542" x="2214.02" y="4664.11" type="priority"/>
    <node id="11224273543" x="2197.90" y="4664.70" type="priority"/>
    <node id="11224273544" x="2213.19" y="4647.26" type="priority"/>
    <node id="11224273545" x="2197.08" y="4647.48" type="priority"/>
    <node id="11276465925" x="2323.01" y="3625.74" type="priority"/>
    <node id="11276465926" x="2338.84" y="3629.16" type="priority"/>
    <node id="11276465927" x="2341.58" y="3720.86" type="priority"/>
    <node id="11276465930" x="2330.86" y="3667.56" type="priority"/>
    <node id="11299449820" x="2373.76" y="4681.88" type="priority"/>
    <node id="11299449823" x="2417.04" y="4675.68" type="priority"/>
    <node id="11299475747" x="1665.11" y="5069.52" type="priority"/>
    <node id="11352882835" x="2521.37" y="3661.63" type="priority"/>
    <node id="11352882836" x="2489.10" y="3661.36" type="priority"/>
    <node id="11352882837" x="2222.99" y="3853.41" type="priority"/>
    <node id="1136623633" x="2599.55" y="4139.17" type="priority"/>
    <node id="1136623651" x="273.76" y="4873.79" type="traffic_light" tl="1136623651"/>
    <node id="11519526592" x="1121.56" y="5015.69" type="dead_end"/>
    <node id="11519526593" x="1130.04" y="5022.00" type="dead_end"/>
    <node id="11519526594" x="1123.00" y="5016.77" type="priority"/>
    <node id="11519554745" x="1177.70" y="5046.93" type="dead_end"/>
    <node id="11519554746" x="1192.66" y="5053.92" type="dead_end"/>
    <node id="11519554747" x="1188.03" y="5051.75" type="priority"/>
    <node id="1168273992-AddedOffRampNode" x="2372.90" y="4333.34" type="priority"/>
    <node id="12107891206" x="2278.39" y="4743.65" type="priority"/>
    <node id="12206095575" x="2441.67" y="4416.76" type="dead_end"/>
    <node id="1239464379" x="2174.03" y="4919.92" type="priority"/>
    <node id="1239464387" x="2070.43" y="5063.64" type="priority"/>
    <node id="1239464436" x="3613.80" y="4195.78" type="priority"/>
    <node id="1239464459" x="2140.19" y="5018.68" type="priority"/>
    <node id="1239464467" x="2014.56" y="5188.35" type="priority"/>
    <node id="1239464482" x="2114.91" y="5036.62" type="priority"/>
    <node id="1239464511" x="2080.48" y="4987.16" type="priority"/>
    <node id="1239464561" x="2044.30" y="5208.65" type="priority"/>
    <node id="1239464580" x="2223.76" y="5033.32" type="priority" fringe="inner">
        <param key="buffer_stop" value="true"/>
    </node>
    <node id="1239464612" x="2217.10" y="4964.84" type="priority"/>
    <node id="1239464654" x="2165.46" y="5110.77" type="priority" fringe="inner">
        <param key="buffer_stop" value="true"/>
    </node>
    <node id="1239464678" x="2186.00" y="4984.58" type="priority"/>
    <node id="1239464682" x="2190.31" y="5088.38" type="priority" fringe="inner">
        <param key="buffer_stop" value="true"/>
    </node>
    <node id="1239464690" x="2070.23" y="5254.26" type="priority"/>
    <node id="12620863885" x="1015.05" y="5131.14" type="priority"/>
    <node id="12620863886" x="1058.45" y="5085.30" type="priority"/>
    <node id="12620916130" x="1537.37" y="5485.66" type="priority"/>
    <node id="12620916131" x="1546.67" y="5522.67" type="dead_end"/>
    <node id="12620916132" x="1492.75" y="5387.82" type="priority"/>
    <node id="12620916133" x="1489.87" y="5505.35" type="priority"/>
    <node id="12634677146" x="353.26" y="5376.05" type="priority"/>
    <node id="12634677150" x="366.31" y="5355.71" type="priority"/>
    <node id="12634677152" x="392.39" y="5403.46" type="priority"/>
    <node id="12634677153" x="365.96" y="5390.72" type="priority"/>
    <node id="12778278072" x="3309.03" y="4596.45" type="priority"/>
    <node id="12778278073" x="3249.50" y="4618.51" type="priority"/>
    <node id="12778278074" x="3368.03" y="4623.30" type="priority"/>
    <node id="12778278080" x="3417.13" y="4795.49" type="priority"/>
    <node id="12778278082" x="3360.45" y="4826.58" type="priority"/>
    <node id="12778278083" x="3225.37" y="4313.65" type="priority"/>
    <node id="12778278084" x="3183.67" y="4445.62" type="priority"/>
    <node id="12782348571" x="3355.45" y="4852.11" type="priority"/>
    <node id="1536042658" x="272.34" y="4919.36" type="dead_end"/>
    <node id="1674925461" x="1725.37" y="5076.06" type="dead_end"/>
    <node id="1674925462" x="1710.49" y="5042.73" type="dead_end"/>
    <node id="1674925464" x="1670.56" y="4748.72" type="dead_end"/>
    <node id="1674925465" x="1652.25" y="4715.30" type="dead_end"/>
    <node id="179181038#1-AddedOnRampNode" x="2513.50" y="3455.49" type="priority"/>
    <node id="1807994948" x="2251.11" y="3944.66" type="dead_end"/>
    <node id="1807994949" x="2293.76" y="3943.21" type="dead_end"/>
    <node id="1895290355" x="2992.04" y="3098.47" type="dead_end"/>
    <node id="1907675551" x="396.94" y="5054.00" type="priority"/>
    <node id="1907676674" x="589.50" y="5294.20" type="priority"/>
    <node id="1907676678" x="607.54" y="5387.61" type="priority"/>
    <node id="1907676696" x="522.90" y="5211.46" type="priority"/>
    <node id="2027065956" x="2327.68" y="5414.99" type="priority"/>
    <node id="2029406011" x="340.27" y="4943.16" type="priority"/>
    <node id="2097972593" x="282.07" y="1900.75" type="dead_end"/>
    <node id="2098341573" x="1266.37" y="4120.32" type="priority" fringe="inner">
        <param key="buffer_stop" value="true"/>
    </node>
    <node id="2098341577" x="1123.33" y="3893.53" type="priority"/>
    <node id="2098341583" x="1546.50" y="3770.07" type="priority"/>
    <node id="2098341586" x="1315.24" y="4091.41" type="priority"/>
    <node id="2098681830" x="2052.91" y="4330.23" type="priority"/>
    <node id="2098681834" x="1843.09" y="4143.17" type="priority"/>
    <node id="2098681835" x="2090.27" y="4301.49" type="priority"/>
    <node id="2098681836" x="1941.65" y="4189.17" type="priority"/>
    <node id="2098681837" x="1410.00" y="4109.61" type="priority"/>
    <node id="2098681839" x="948.90" y="4777.58" type="priority"/>
    <node id="2098681840" x="1786.56" y="4171.32" type="priority"/>
    <node id="2098681843" x="2086.26" y="4462.63" type="priority"/>
    <node id="2098681846" x="1423.67" y="4127.64" type="dead_end"/>
    <node id="2098681859" x="1407.61" y="4160.21" type="dead_end"/>
    <node id="2098681861" x="1414.71" y="4126.20" type="dead_end"/>
    <node id="2098681865" x="2267.85" y="4341.35" type="priority"/>
    <node id="2098681866" x="1816.24" y="4156.90" type="priority"/>
    <node id="2098681867" x="1390.27" y="4042.41" type="priority"/>
    <node id="2098681868" x="2049.51" y="4310.75" type="priority"/>
    <node id="2098681870" x="1396.64" y="4154.13" type="dead_end"/>
    <node id="2098681871" x="2039.91" y="4495.35" type="priority"/>
    <node id="2098681872" x="1491.13" y="5241.22" type="priority"/>
    <node id="2098714619" x="2385.73" y="4351.80" type="priority"/>
    <node id="2098714630" x="2417.39" y="4658.01" type="priority"/>
    <node id="2102022683" x="2141.16" y="5450.36" type="priority"/>
    <node id="2102022685" x="2352.35" y="4833.23" type="priority"/>
    <node id="2102022702" x="2124.98" y="5496.00" type="priority"/>
    <node id="2103356001" x="525.44" y="5516.43" type="priority"/>
    <node id="2103356002" x="506.64" y="5216.95" type="priority"/>
    <node id="25042889#9-AddedOffRampNode" x="1999.63" y="4585.41" type="priority"/>
    <node id="2523530798" x="1693.19" y="4609.52" type="priority"/>
    <node id="2591913894" x="360.15" y="4860.63" type="priority"/>
    <node id="261694820" x="1465.17" y="4173.07" type="priority"/>
    <node id="261696450" x="2634.20" y="4297.19" type="priority"/>
    <node id="261696454" x="2441.26" y="4414.54" type="priority"/>
    <node id="261696455" x="2352.78" y="4431.71" type="priority"/>
    <node id="261696456" x="2205.49" y="4460.40" type="priority"/>
    <node id="261696457" x="2124.10" y="4466.20" type="priority"/>
    <node id="261696464" x="2445.05" y="4557.62" type="priority"/>
    <node id="261696471" x="2396.95" y="4454.21" type="priority"/>
    <node id="261696472" x="2374.99" y="4339.62" type="priority"/>
    <node id="261696480" x="2437.38" y="4461.91" type="priority"/>
    <node id="261696486" x="2415.95" y="4340.21" type="priority"/>
    <node id="261696492" x="2408.43" y="4577.82" type="priority"/>
    <node id="261696496" x="2200.42" y="4424.44" type="priority"/>
    <node id="261696502" x="2265.45" y="3956.21" type="priority"/>
    <node id="261696503" x="2380.31" y="4236.40" type="priority"/>
    <node id="261696509" x="2583.77" y="4212.23" type="priority"/>
    <node id="261696512" x="2327.85" y="4182.32" type="priority"/>
    <node id="261696518" x="2436.63" y="4616.16" type="priority"/>
    <node id="261696755" x="1427.27" y="4961.78" type="priority"/>
    <node id="261696760" x="1744.49" y="4673.84" type="priority"/>
    <node id="261696768" x="1333.22" y="4085.48" type="priority"/>
    <node id="262143150" x="931.10" y="3856.06" type="priority"/>
    <node id="264913299" x="1730.97" y="5048.92" type="priority"/>
    <node id="264913305" x="1638.82" y="5084.16" type="priority"/>
    <node id="264913306" x="1588.54" y="5084.26" type="priority"/>
    <node id="264913310" x="1703.74" y="4979.48" type="priority"/>
    <node id="264913311" x="1689.20" y="4933.98" type="priority"/>
    <node id="264913312" x="1675.24" y="4886.06" type="priority"/>
    <node id="264913313" x="1652.32" y="4836.45" type="priority"/>
    <node id="264913315" x="1472.91" y="4956.10" type="priority"/>
    <node id="264913321" x="1496.45" y="4904.86" type="priority"/>
    <node id="264913322" x="1499.19" y="4856.79" type="priority"/>
    <node id="264913323" x="1817.83" y="4920.32" type="priority"/>
    <node id="264913324" x="1812.46" y="4774.85" type="priority"/>
    <node id="264913326" x="1778.02" y="4745.75" type="priority"/>
    <node id="264913327" x="1755.52" y="4686.89" type="priority"/>
    <node id="264913328" x="1632.21" y="4780.99" type="priority"/>
    <node id="264913329" x="1875.76" y="4762.55" type="priority"/>
    <node id="264913330" x="1876.53" y="4856.59" type="priority"/>
    <node id="264913333" x="1491.07" y="5206.69" type="priority"/>
    <node id="264913334" x="1565.07" y="5193.53" type="priority"/>
    <node id="264913335" x="1639.08" y="5175.62" type="priority"/>
    <node id="264913336" x="1898.78" y="5118.23" type="priority"/>
    <node id="264913337" x="1998.63" y="5046.19" type="priority"/>
    <node id="264913338" x="1567.89" y="5125.15" type="priority"/>
    <node id="264913339" x="1413.59" y="5146.95" type="priority"/>
    <node id="264913340" x="1463.30" y="5179.72" type="priority"/>
    <node id="264913341" x="1501.07" y="5125.92" type="priority"/>
    <node id="264913342" x="1453.95" y="5083.97" type="priority"/>
    <node id="264913343" x="1930.52" y="5158.21" type="priority"/>
    <node id="264913344" x="1878.15" y="5087.09" type="priority"/>
    <node id="264913345" x="2030.37" y="5085.39" type="priority"/>
    <node id="264913346" x="1975.29" y="5012.32" type="priority"/>
    <node id="264913348" x="2285.98" y="4182.53" type="priority"/>
    <node id="264913349" x="2264.40" y="4221.53" type="priority"/>
    <node id="264913350" x="2259.29" y="4210.98" type="priority"/>
    <node id="264913351" x="2171.26" y="4241.28" type="priority"/>
    <node id="264913352" x="2082.67" y="4273.58" type="priority"/>
    <node id="264913353" x="2041.23" y="4149.70" type="priority"/>
    <node id="264913354" x="2028.49" y="4104.82" type="priority"/>
    <node id="264913361" x="1912.73" y="4317.56" type="priority"/>
    <node id="264913362" x="1983.40" y="4301.29" type="priority"/>
    <node id="264913363" x="1995.99" y="4167.69" type="priority"/>
    <node id="264913364" x="2082.84" y="4132.76" type="priority"/>
    <node id="264913365" x="2129.11" y="4117.18" type="priority"/>
    <node id="264913366" x="2205.56" y="4090.88" type="priority"/>
    <node id="264913367" x="2218.66" y="4086.46" type="priority"/>
    <node id="264913368" x="2236.98" y="4080.50" type="priority"/>
    <node id="264913369" x="2260.43" y="4073.11" type="priority"/>
    <node id="264913372" x="2205.71" y="3991.17" type="priority"/>
    <node id="264913374" x="2211.56" y="3988.71" type="priority"/>
    <node id="264913375" x="2219.78" y="3880.75" type="priority"/>
    <node id="264913378" x="2096.73" y="3838.10" type="priority"/>
    <node id="264913379" x="2069.02" y="3888.78" type="priority"/>
    <node id="264913383" x="1960.75" y="3963.77" type="priority"/>
    <node id="264913384" x="1963.53" y="3920.50" type="priority"/>
    <node id="264913387" x="2046.00" y="3979.97" type="priority" fringe="inner">
        <param key="buffer_stop" value="true"/>
    </node>
    <node id="264913388" x="2346.37" y="4062.05" type="priority"/>
    <node id="264913390" x="2322.45" y="4041.51" type="priority"/>
    <node id="264913392" x="2407.61" y="3874.02" type="priority"/>
    <node id="264913393" x="2294.57" y="3866.08" type="priority"/>
    <node id="264913394" x="2441.38" y="3871.31" type="priority"/>
    <node id="264913397" x="2398.71" y="4057.71" type="priority"/>
    <node id="264913399" x="2407.83" y="4176.46" type="priority"/>
    <node id="264913400" x="2460.86" y="4166.25" type="priority"/>
    <node id="264913402" x="2511.52" y="4156.46" type="priority"/>
    <node id="264913403" x="2577.14" y="4144.50" type="priority"/>