<?xml version="1.0" encoding="UTF-8"?>

<!-- generated on 2025-05-04 10:06:47 by Eclipse SUMO netconvert Version 1.18.0
<configuration xmlns:xsi="http://www.w3.org/2001/XMLSchema-instance" xsi:noNamespaceSchemaLocation="http://sumo.dlr.de/xsd/netconvertConfiguration.xsd">

    <input>
        <type-files value="input/simon_bolivar.typ.xml"/>
        <osm-files value="input/simon_bolivar.osm.xml"/>
    </input>

    <output>
        <output-file value="input/simon_bolivar.net.xml"/>
        <plain-output-prefix value="input/simon_bolivar_plain"/>
    </output>

    <projection>
        <proj.utm value="true"/>
    </projection>

    <processing>
        <geometry.remove value="true"/>
    </processing>

    <tls_building>
        <tls.guess value="true"/>
    </tls_building>

    <ramp_guessing>
        <ramps.guess value="true"/>
    </ramp_guessing>

    <report>
        <verbose value="true"/>
    </report>

</configuration>
-->

<edges version="1.16" xmlns:xsi="http://www.w3.org/2001/XMLSchema-instance" xsi:noNamespaceSchemaLocation="http://sumo.dlr.de/xsd/edges_file.xsd">
    <location netOffset="-777596.93,30683.41" convBoundary="0.00,0.00,5445.97,7687.09" origBoundary="-78.506078,-0.277333,-78.457181,-0.207850" projParameter="+proj=utm +zone=17 +ellps=WGS84 +datum=WGS84 +units=m +no_defs"/>

    <edge id="-107938343" from="1239464580" to="1239464678" priority="3" type="highway.residential" numLanes="1" speed="13.89" shape="2223.76,5033.32 2217.93,5029.92 2186.00,4984.58" allow="passenger"/>
    <edge id="-107938350#0" from="272479328" to="264913299" priority="3" type="highway.residential" numLanes="1" speed="13.89" allow="passenger"/>
    <edge id="-107938350#1" from="264913310" to="272479328" priority="3" type="highway.residential" numLanes="1" speed="13.89" allow="passenger"/>
    <edge id="-107938350#2" from="264913311" to="264913310" priority="3" type="highway.residential" numLanes="1" speed="13.89" allow="passenger"/>
    <edge id="-107938350#3" from="264913312" to="264913311" priority="3" type="highway.residential" numLanes="1" speed="13.89" allow="passenger"/>
    <edge id="-107938350#4" from="264913313" to="264913312" priority="3" type="highway.residential" numLanes="1" speed="13.89" allow="passenger"/>
    <edge id="-107938350#5" from="264913328" to="264913313" priority="3" type="highway.residential" numLanes="1" speed="13.89" allow="passenger"/>
    <edge id="-107938350#6" from="4286820530" to="264913328" priority="3" type="highway.residential" numLanes="1" speed="13.89" allow="passenger"/>
    <edge id="-107938364" from="272581306" to="272581285" priority="3" type="highway.residential" numLanes="1" speed="13.89" allow="passenger"/>
    <edge id="-107938371" from="1239464482" to="1239464511" priority="3" type="highway.residential" numLanes="1" speed="13.89" allow="passenger"/>
    <edge id="-107938377#0" from="2812244709" to="1239464690" priority="3" type="highway.residential" numLanes="1" speed="13.89" shape="2083.78,5229.01 2082.58,5232.42 2070.23,5254.26" allow="passenger"/>
    <edge id="-107938377#1" from="2812244703" to="2812244709" priority="3" type="highway.residential" numLanes="1" speed="13.89" shape="2061.16,5206.96 2070.39,5208.22 2076.39,5210.94 2080.86,5214.69 2083.43,5218.95 2084.64,5224.58 2083.78,5229.01" allow="passenger"/>
    <edge id="-107938377#2" from="1239464561" to="2812244703" priority="3" type="highway.residential" numLanes="1" speed="13.89" shape="2044.30,5208.65 2052.78,5207.96 2061.16,5206.96" allow="passenger"/>
    <edge id="-107938377#3" from="1239464467" to="1239464561" priority="3" type="highway.residential" numLanes="1" speed="13.89" shape="2014.56,5188.35 2015.52,5193.23 2019.19,5198.85 2024.53,5203.64 2031.99,5206.38 2044.30,5208.65" allow="passenger"/>
    <edge id="-107938377#4" from="1239464387" to="1239464467" priority="3" type="highway.residential" numLanes="1" speed="13.89" shape="2070.43,5063.64 2072.24,5066.82 2072.91,5071.08 2071.57,5088.57 2068.39,5100.96 2064.66,5108.83 2059.13,5115.38 2042.34,5133.66 2028.69,5150.32 2021.26,5162.74 2018.09,5170.23 2015.73,5177.42 2014.21,5183.13 2014.56,5188.35" allow="passenger"/>
    <edge id="-107938391#0" from="3799501034" to="1239464482" priority="3" type="highway.residential" numLanes="1" speed="13.89" allow="passenger"/>
    <edge id="-107938391#1" from="11142660039" to="3799501034" priority="3" type="highway.residential" numLanes="1" speed="13.89" allow="passenger"/>
    <edge id="-107938391#2" from="1239464654" to="11142660039" priority="3" type="highway.residential" numLanes="1" speed="13.89" allow="passenger"/>
    <edge id="-107938439" from="1239464682" to="1239464459" priority="3" type="highway.residential" numLanes="1" speed="13.89" shape="2190.31,5088.38 2183.73,5081.97 2140.19,5018.68" allow="passenger"/>
    <edge id="-1079612058" from="4286832255" to="9896109462" priority="1" type="highway.path" numLanes="1" speed="5.56" shape="2601.58,4015.19 2606.18,4028.09 2611.26,4037.88 2614.18,4041.82 2617.08,4042.56 2619.62,4041.14 2621.42,4037.14 2629.15,4016.57" width="2.00" allow="pedestrian bicycle"/>
    <edge id="-1079867884#0" from="272479304" to="8315169054" priority="1" type="highway.path" numLanes="1" speed="5.56" width="2.00" allow="pedestrian bicycle"/>
    <edge id="-1079867884#1" from="9898324210" to="272479304" priority="1" type="highway.path" numLanes="1" speed="5.56" shape="2037.32,4463.14 2015.53,4468.51 1990.91,4475.99 1965.29,4477.06" width="2.00" allow="pedestrian bicycle"/>
    <edge id="-1079867884#2" from="9898324208" to="9898324210" priority="1" type="highway.path" numLanes="1" speed="5.56" shape="2076.53,4444.06 2058.39,4456.56 2037.32,4463.14" width="2.00" allow="pedestrian bicycle"/>
    <edge id="-1080100547" from="8315169097" to="264913329" priority="1" type="highway.path" numLanes="1" speed="5.56" shape="1912.65,4763.39 1906.22,4764.48 1900.97,4765.04 1886.54,4762.48 1881.37,4761.92 1875.76,4762.55" width="2.00" allow="pedestrian bicycle"/>
    <edge id="-1080119679" from="5706053987" to="264913369" priority="3" type="highway.residential" numLanes="1" speed="13.89" shape="2245.59,3977.74 2248.22,3997.69 2260.43,4073.11" allow="passenger"/>
    <edge id="-1080631189" from="9904816906" to="9904816907" priority="1" type="highway.service" numLanes="1" speed="5.56" allow="passenger"/>
    <edge id="-1080631195#0" from="8315169186" to="8315169187" priority="1" type="highway.service" numLanes="1" speed="5.56" allow="passenger"/>
    <edge id="-1091498703" from="8315169097" to="9996559471" priority="1" type="highway.path" numLanes="1" speed="5.56" width="2.00" allow="pedestrian bicycle"/>
    <edge id="-1091498704" from="264913306" to="264913341" priority="1" type="highway.path" numLanes="1" speed="5.56" shape="1588.54,5084.26 1580.15,5093.42 1573.52,5099.22 1561.57,5105.03 1548.82,5107.93 1534.48,5110.84 1514.04,5107.14 1504.21,5109.26 1501.82,5115.59 1501.07,5125.92" width="2.00" allow="pedestrian bicycle"/>
    <edge id="-1092457245" from="10005120997" to="357200911" priority="8" type="highway.trunk_link" numLanes="1" speed="22.22" allow="passenger"/>
    <edge id="-1094251931" from="4222935093" to="4222935089" priority="3" type="highway.residential" numLanes="1" speed="13.89" allow="passenger"/>
    <edge id="-1094251932" from="4222935089" to="272441686" priority="3" type="highway.residential" numLanes="1" speed="13.89" allow="passenger"/>
    <edge id="-1094251933" from="272460906" to="10021676606" priority="3" type="highway.residential" numLanes="1" speed="13.89" allow="passenger"/>
    <edge id="-1094251934" from="272469848" to="10021765832" priority="3" type="highway.residential" numLanes="1" speed="13.89" allow="passenger"/>
    <edge id="-1094251935" from="6258312221" to="6258312218" priority="1" type="highway.path" numLanes="1" speed="5.56" width="2.00" allow="pedestrian bicycle"/>
    <edge id="-1094255525" from="272441632" to="272441630" priority="1" type="highway.service" numLanes="1" speed="5.56" shape="1093.17,3910.90 1096.73,3901.59 1100.87,3885.69" allow="passenger"/>
    <edge id="-1094261602" from="272581351" to="10021631207" priority="1" type="highway.path" numLanes="1" speed="5.56" width="2.00" allow="pedestrian bicycle"/>
    <edge id="-1094261603#0" from="264913423" to="264913422" priority="3" type="highway.residential" numLanes="1" speed="13.89" allow="passenger"/>
    <edge id="-1094261603#1" from="6101299462" to="264913423" priority="3" type="highway.residential" numLanes="1" speed="13.89" allow="passenger"/>
    <edge id="-1094261603#2" from="9900560710" to="6101299462" priority="3" type="highway.residential" numLanes="1" speed="13.89" allow="passenger"/>
    <edge id="-1094261603#3" from="264913390" to="9900560710" priority="3" type="highway.residential" numLanes="1" speed="13.89" allow="passenger"/>
    <edge id="-1094261603#4" from="264913388" to="264913390" priority="3" type="highway.residential" numLanes="1" speed="13.89" shape="2346.37,4062.05 2329.11,4051.10 2324.89,4046.81 2322.45,4041.51" allow="passenger"/>
    <edge id="-1094261604" from="272577668" to="10021877737" priority="1" type="highway.path" numLanes="1" speed="5.56" width="2.00" allow="pedestrian bicycle"/>
    <edge id="-1094261605" from="3757867184" to="3757867185" priority="3" type="highway.residential" numLanes="1" speed="13.89" allow="passenger"/>
    <edge id="-1094268111" from="10021934917" to="10021934918" priority="3" type="highway.residential" numLanes="1" speed="13.89" allow="passenger"/>
    <edge id="-1094268112" from="7050186190" to="7050186191" priority="3" type="highway.residential" numLanes="1" speed="13.89" shape="2191.71,3444.01 2160.15,3373.34 2156.74,3365.64" allow="passenger"/>
    <edge id="-1094268118#0" from="11352882836" to="10021934933" priority="3" type="highway.residential" numLanes="1" speed="13.89" allow="passenger"/>
    <edge id="-1094268118#1" from="272575268" to="11352882836" priority="3" type="highway.residential" numLanes="1" speed="13.89" allow="passenger"/>
    <edge id="-1094268119" from="11173346327" to="8051569198" priority="3" type="highway.residential" numLanes="1" speed="13.89" shape="2698.96,3743.12 2702.40,3744.61 2705.39,3748.90 2705.61,3753.06 2704.12,3755.88 2701.20,3760.77 2697.77,3763.82 2694.86,3765.97 2693.52,3768.05 2675.46,3843.64 2672.47,3848.69 2668.14,3851.96 2663.36,3853.15 2658.57,3852.55 2656.49,3849.88 2655.44,3845.13 2665.14,3810.57 2663.94,3807.30 2660.66,3805.96" allow="passenger"/>
    <edge id="-1094279093#0" from="8321282990" to="5186365781" priority="1" type="highway.service" numLanes="1" speed="5.56" shape="3848.60,3594.46 3852.86,3613.71 3853.41,3622.49 3849.51,3627.24" allow="passenger"/>
    <edge id="-1094282281" from="10021991345" to="4534850760" priority="3" type="highway.residential" numLanes="1" speed="13.89" allow="passenger"/>
    <edge id="-1094282285" from="3416301437" to="3416301419" priority="4" type="highway.unclassified" numLanes="1" speed="13.89" shape="3778.04,3957.68 3779.44,3966.96 3778.93,3975.49 3775.84,3982.38 3773.94,3988.44 3774.07,3994.51 3776.87,3999.97 3785.10,4010.80 3788.73,4018.20 3790.27,4024.14 3792.00,4036.21 3792.66,4046.69 3796.79,4059.96 3802.83,4073.40 3811.80,4092.98 3824.29,4117.52 3837.40,4143.24 3853.18,4166.74 3863.94,4183.36 3872.75,4197.43 3881.06,4206.54 3895.47,4217.01 3905.56,4226.11 3908.68,4230.87 3908.60,4236.39 3902.08,4251.22 3899.94,4260.57 3901.03,4265.92 3904.08,4268.10 3908.55,4268.06 3919.97,4262.70 3936.07,4247.40 3944.71,4236.45 3946.82,4226.96 3946.31,4219.38 3936.69,4203.95 3929.52,4194.45 3922.88,4183.98 3918.11,4169.71 3910.39,4147.56 3903.82,4132.14 3898.38,4117.36 3893.05,4105.43 3888.24,4092.63 3885.95,4086.53 3885.36,4080.15 3886.43,4075.49" allow="passenger"/>
    <edge id="-1094282286" from="3416301419" to="3416301437" priority="4" type="highway.unclassified" numLanes="1" speed="13.89" shape="3886.43,4075.49 3885.36,4080.15 3885.95,4086.53 3888.24,4092.63 3893.05,4105.43 3898.38,4117.36 3903.82,4132.14 3910.39,4147.56 3918.11,4169.71 3922.88,4183.98 3929.52,4194.45 3936.69,4203.95 3946.31,4219.38 3946.82,4226.96 3944.71,4236.45 3936.07,4247.40 3919.97,4262.70 3908.55,4268.06 3904.08,4268.10 3901.03,4265.92 3899.94,4260.57 3902.08,4251.22 3908.60,4236.39 3908.68,4230.87 3905.56,4226.11 3895.47,4217.01 3881.06,4206.54 3872.75,4197.43 3863.94,4183.36 3853.18,4166.74 3837.40,4143.24 3824.29,4117.52 3811.80,4092.98 3802.83,4073.40 3796.79,4059.96 3792.66,4046.69 3792.00,4036.21 3790.27,4024.14 3788.73,4018.20 3785.10,4010.80 3776.87,3999.97 3774.07,3994.51 3773.94,3988.44 3775.84,3982.38 3778.93,3975.49 3779.44,3966.96 3778.04,3957.68" allow="passenger"/>
    <edge id="-1094282287" from="3416301397" to="8321283152" priority="1" type="highway.service" numLanes="1" speed="5.56" shape="3664.51,3821.89 3668.25,3820.48 3687.21,3783.83 3690.64,3769.74 3692.41,3768.39 3694.57,3767.86 3696.77,3768.25 3697.92,3768.90 3698.89,3769.80 3700.56,3771.82 3701.70,3774.18 3702.20,3776.55 3702.15,3778.96 3702.23,3781.31 3702.89,3782.85 3704.69,3783.83 3706.37,3784.12 3708.06,3783.92 3709.62,3783.23 3713.50,3777.44 3713.21,3768.84 3711.29,3748.35 3710.44,3734.42 3710.68,3725.79 3711.95,3722.08 3713.74,3720.90 3723.90,3720.30 3742.42,3719.11 3753.24,3718.92 3759.15,3719.11 3763.85,3718.90" allow="passenger"/>
    <edge id="-1094298143#0" from="268300322" to="268300315" priority="3" type="highway.residential" numLanes="1" speed="13.89" shape="2938.68,4971.70 2928.36,4979.03 2915.25,4982.04 2906.15,4980.20 2899.15,4974.33 2817.61,4831.37 2814.64,4828.48 2810.31,4824.42" allow="passenger"/>
    <edge id="-1094298143#1" from="268300326" to="268300322" priority="3" type="highway.residential" numLanes="1" speed="13.89" shape="2889.46,4762.98 2941.34,4953.13 2942.21,4963.63 2938.68,4971.70" allow="passenger"/>
    <edge id="-1094298144" from="10022312825" to="268300299" priority="3" type="highway.residential" numLanes="1" speed="13.89" allow="passenger"/>
    <edge id="-1094298145" from="268300299" to="268300170" priority="1" type="highway.track" numLanes="1" speed="5.56" shape="2762.35,5042.59 2703.60,5057.67 2667.95,5064.19 2664.24,5059.32 2661.55,5053.24 2652.27,5014.52" allow="pedestrian motorcycle moped bicycle"/>
    <edge id="-1094298146" from="10022312826" to="2968346242" priority="3" type="highway.residential" numLanes="1" speed="13.89" allow="passenger"/>
    <edge id="-1094298147" from="268300061" to="268300170" priority="3" type="highway.residential" numLanes="1" speed="13.89" allow="passenger"/>
    <edge id="-1094298148" from="268300064" to="10022312827" priority="1" type="highway.path" numLanes="1" speed="5.56" width="2.00" allow="pedestrian bicycle"/>
    <edge id="-1094316873" from="3629669572" to="10022424235" priority="3" type="highway.residential" numLanes="1" speed="13.89" allow="passenger"/>
    <edge id="-1094534966" from="268300146" to="2812138315" priority="3" type="highway.residential" numLanes="1" speed="13.89" shape="2269.65,5505.24 2255.30,5503.06 2249.27,5501.68 2244.06,5499.18 2239.78,5495.77 2228.32,5482.91" allow="pedestrian passenger bus"/>
    <edge id="-1094541188#0" from="4274523868" to="9898190192" priority="1" type="highway.service" numLanes="1" speed="5.56" shape="2354.48,5227.57 2349.94,5234.36 2343.96,5241.90 2335.90,5255.77 2327.01,5272.39 2322.16,5281.44 2319.02,5289.61 2315.35,5296.88 2311.40,5303.48 2307.45,5308.89 2303.57,5313.42 2298.78,5318.91 2292.21,5326.03 2287.14,5335.97 2280.57,5346.81 2274.38,5356.08 2268.25,5365.88 2262.30,5371.99" allow="passenger"/>
    <edge id="-1094541188#1" from="9168519362" to="4274523868" priority="1" type="highway.service" numLanes="1" speed="5.56" shape="2361.82,5086.44 2360.96,5094.64 2360.00,5105.83 2360.60,5116.89 2362.39,5126.45 2364.48,5141.22 2366.65,5152.87 2367.77,5163.03 2368.29,5171.86 2368.82,5184.91 2366.06,5198.57 2359.41,5217.79 2354.48,5227.57" allow="passenger"/>
    <edge id="-1100897258" from="10075460348" to="272461012" priority="4" type="highway.unclassified" numLanes="1" speed="13.89" shape="716.68,3522.28 636.73,3563.06 633.65,3563.15 630.95,3562.12 628.87,3560.17 610.82,3491.43" allow="passenger"/>
    <edge id="-1168279796" from="269360504" to="269360503" priority="3" type="highway.residential" numLanes="1" speed="13.89" shape="2789.58,4319.09 2743.73,4279.79 2738.53,4275.55" allow="passenger"/>
    <edge id="-1168283949" from="10865047477" to="10021877728" priority="1" type="highway.service" numLanes="1" speed="5.56" shape="2607.84,3753.71 2607.03,3739.95 2606.57,3732.38 2610.78,3729.76 2626.88,3720.66" allow="passenger"/>
    <edge id="-1168287295" from="264913330" to="264913329" priority="3" type="highway.residential" numLanes="1" speed="13.89" allow="passenger"/>
    <edge id="-1168287296#0" from="272479306" to="264913324" priority="3" type="highway.residential" numLanes="1" speed="13.89" allow="passenger"/>
    <edge id="-1168287296#1" from="272479316" to="272479306" priority="3" type="highway.residential" numLanes="1" speed="13.89" allow="passenger"/>
    <edge id="-1168287296#2" from="272479313" to="272479316" priority="3" type="highway.residential" numLanes="1" speed="13.89" allow="passenger"/>
    <edge id="-1168287296#3" from="264913323" to="272479313" priority="3" type="highway.residential" numLanes="1" speed="13.89" allow="passenger"/>
    <edge id="-1168287297#0" from="272479320" to="264913327" priority="3" type="highway.residential" numLanes="1" speed="13.89" shape="1766.31,4706.73 1761.13,4695.50 1755.52,4686.89" allow="passenger"/>
    <edge id="-1168287297#1" from="272479322" to="272479320" priority="3" type="highway.residential" numLanes="1" speed="13.89" allow="passenger"/>
    <edge id="-1168287297#2" from="264913326" to="272479322" priority="3" type="highway.residential" numLanes="1" speed="13.89" allow="passenger"/>
    <edge id="-1168287297#3" from="272479319" to="264913326" priority="3" type="highway.residential" numLanes="1" speed="13.89" allow="passenger"/>
    <edge id="-1168287297#4" from="264913324" to="272479319" priority="3" type="highway.residential" numLanes="1" speed="13.89" shape="1812.46,4774.85 1792.48,4779.09 1788.49,4777.23 1784.68,4766.62" allow="passenger"/>
    <edge id="-1168287299#0" from="11168790448" to="268466772" priority="3" type="highway.residential" numLanes="1" speed="13.89" allow="passenger"/>
    <edge id="-1168287299#1" from="268466773" to="11168790448" priority="3" type="highway.residential" numLanes="1" speed="13.89" allow="passenger"/>
    <edge id="-1168305904" from="264913369" to="264913368" priority="3" type="highway.residential" numLanes="1" speed="13.89" allow="passenger"/>
    <edge id="-1168305905#0" from="264913353" to="264913363" priority="3" type="highway.residential" numLanes="1" speed="13.89" shape="2041.23,4149.70 2035.15,4154.05 2004.53,4164.41 1995.99,4167.69" allow="passenger"/>
    <edge id="-1168305905#1" from="272479259" to="264913353" priority="3" type="highway.residential" numLanes="1" speed="13.89" shape="2068.35,4137.73 2048.89,4145.26 2041.23,4149.70" allow="passenger"/>
    <edge id="-1168305905#2" from="264913364" to="272479259" priority="3" type="highway.residential" numLanes="1" speed="13.89" allow="passenger"/>
    <edge id="-1168311254" from="272441510" to="272441508" priority="3" type="highway.residential" numLanes="1" speed="13.89" allow="passenger"/>
    <edge id="-1168354449" from="10865906254" to="10865906259" priority="1" type="highway.path" numLanes="1" speed="5.56" shape="478.55,3593.01 487.52,3589.44 502.17,3589.74 536.52,3597.16 546.68,3598.04 569.52,3594.04" width="2.00" allow="pedestrian bicycle"/>
    <edge id="-1168361906" from="272584768" to="6345777921" priority="11" type="highway.secondary" numLanes="2" speed="13.89" shape="1216.80,3222.77 1210.80,3235.39 1095.59,3381.75">
        <lane index="0" allow="passenger bus"/>
        <lane index="1" allow="passenger"/>
    </edge>
    <edge id="-1168524081" from="272457395" to="272450212" priority="10" type="highway.tertiary" numLanes="1" speed="22.22" shape="348.92,3581.07 350.38,3592.07 372.22,3638.29 374.32,3652.32 373.69,3665.54 367.82,3676.42 348.41,3701.49 308.88,3735.88 344.93,3793.35 347.05,3807.87" allow="passenger"/>
    <edge id="-1168524082" from="272457395" to="8336679763" priority="11" type="highway.secondary" numLanes="1" speed="8.33" shape="348.92,3581.07 323.81,3564.70 46.80,3384.19" allow="passenger bus"/>
    <edge id="-1168541553" from="10867567220" to="10867539878" priority="1" type="highway.service" numLanes="1" speed="5.56" shape="3855.61,3481.98 3861.74,3494.59 3861.58,3500.53 3858.74,3502.60 3854.49,3502.84 3850.23,3500.24 3825.24,3456.80" allow="passenger"/>
    <edge id="-1168541554" from="10867539900" to="10867539901" priority="1" type="highway.service" numLanes="1" speed="5.56" allow="passenger"/>
    <edge id="-1168541555#0" from="10867539901" to="4534864347" priority="1" type="highway.service" numLanes="1" speed="5.56" shape="3870.72,3428.48 3869.71,3403.63 3870.80,3400.49" allow="passenger"/>
    <edge id="-1168541555#1" from="10867539878" to="10867539901" priority="1" type="highway.service" numLanes="1" speed="5.56" shape="3825.24,3456.80 3826.92,3451.05 3818.84,3405.06 3820.63,3400.30 3826.01,3397.63 3832.28,3398.82 3853.07,3453.27 3854.86,3456.83 3859.34,3459.21 3863.82,3457.43 3866.96,3452.82 3870.72,3428.48" allow="passenger"/>
    <edge id="-1168541555#2" from="10867539880" to="10867539878" priority="1" type="highway.service" numLanes="1" speed="5.56" shape="3712.80,3440.10 3717.28,3443.65 3721.46,3453.44 3721.46,3467.09 3722.36,3480.15 3727.22,3485.20 3741.56,3486.90 3762.62,3479.85 3769.57,3472.28 3771.36,3463.53 3758.23,3419.44 3760.29,3414.86 3794.35,3413.66 3801.22,3418.70 3808.10,3444.53 3813.77,3456.70 3818.85,3458.92 3825.24,3456.80" allow="passenger"/>
    <edge id="-1168541556" from="10867550608" to="10867550610" priority="1" type="highway.service" numLanes="1" speed="5.56" shape="3789.92,3695.66 3786.33,3661.24 3781.14,3646.24" allow="passenger"/>
    <edge id="-1168541557" from="10867550611" to="10867550613" priority="1" type="highway.service" numLanes="1" speed="5.56" shape="3768.11,3688.54 3766.69,3658.86 3768.24,3641.87" allow="passenger"/>
    <edge id="-1168541559" from="10867550617" to="10867550631" priority="4" type="highway.unclassified" numLanes="1" speed="13.89" shape="3863.73,3773.69 3869.40,3791.50 3870.90,3809.00 3870.90,3819.69 3866.72,3826.80 3855.97,3832.45 3847.31,3836.90 3844.32,3842.84 3844.32,3853.82 3844.03,3863.02 3839.54,3869.25 3822.81,3866.88 3808.48,3860.65 3803.99,3854.42 3801.49,3829.31" allow="passenger"/>
    <edge id="-1168541560" from="10867550632" to="10867550639" priority="1" type="highway.track" numLanes="1" speed="5.56" shape="3857.20,3980.23 3879.01,3998.92 3899.62,4023.25 3909.49,4042.84 3924.14,4083.19 3934.00,4103.96 3974.94,4154.99 3974.37,4164.74" allow="pedestrian motorcycle moped bicycle"/>
    <edge id="-1168542191#0" from="10867459583" to="10867459604" priority="1" type="highway.service" numLanes="1" speed="5.56" shape="4037.97,3508.95 4041.17,3510.80 4073.06,3500.64 4074.86,3496.77 4065.43,3458.87" allow="passenger"/>
    <edge id="-1168542191#1" from="10867459581" to="10867459583" priority="1" type="highway.service" numLanes="1" speed="5.56" shape="4050.95,3445.30 4048.71,3461.92 4046.02,3465.78 4035.27,3471.86 4033.77,3476.61 4035.27,3505.10 4037.97,3508.95" allow="passenger"/>
    <edge id="-1168542192#0" from="11223716718" to="10867459588" priority="1" type="highway.service" numLanes="1" speed="5.56" allow="passenger"/>
    <edge id="-1168542192#1" from="10867459586" to="11223716718" priority="1" type="highway.service" numLanes="1" speed="5.56" allow="passenger"/>
    <edge id="-1168542193#0" from="11223716719" to="10867459589" priority="1" type="highway.service" numLanes="1" speed="5.56" allow="passenger"/>
    <edge id="-1168542193#1" from="10867459587" to="11223716719" priority="1" type="highway.service" numLanes="1" speed="5.56" allow="passenger"/>
    <edge id="-1168542194#0" from="10867459589" to="10867567212" priority="1" type="highway.service" numLanes="1" speed="5.56" allow="passenger"/>
    <edge id="-1168542194#1" from="10867459588" to="10867459589" priority="1" type="highway.service" numLanes="1" speed="5.56" allow="passenger"/>
    <edge id="-1168542194#2" from="11189886319" to="10867459588" priority="1" type="highway.service" numLanes="1" speed="5.56" allow="passenger"/>
    <edge id="-1168542194#3" from="11173225143" to="11189886319" priority="1" type="highway.service" numLanes="1" speed="5.56" allow="passenger"/>
    <edge id="-1168542195#0" from="10867567214" to="10867567208" priority="1" type="highway.service" numLanes="1" speed="5.56" shape="3987.64,3422.61 4006.39,3419.34 4008.85,3418.16 4020.35,3369.19" allow="passenger"/>
    <edge id="-1168542195#1" from="10867459590" to="10867567214" priority="1" type="highway.service" numLanes="1" speed="5.56" shape="3930.01,3452.17 3956.57,3436.11 3987.64,3422.61" allow="passenger"/>
    <edge id="-1168542196" from="10867567207" to="10867459595" priority="1" type="highway.service" numLanes="1" speed="5.56" shape="4058.45,3396.77 4060.68,3386.84 4062.03,3382.53 4060.83,3378.67 4016.31,3346.64 4009.40,3331.38" allow="passenger"/>
    <edge id="-1168542197" from="10867459596" to="10867459597" priority="1" type="highway.service" numLanes="1" speed="5.56" allow="passenger"/>
    <edge id="-1168544743#0" from="3416301488" to="3416301442" priority="4" type="highway.unclassified" numLanes="1" speed="13.89" shape="4058.76,4342.51 4079.37,4329.89 4082.36,4329.60 4085.04,4332.42 4112.93,4385.14 4130.92,4411.64 4138.03,4422.38 4143.41,4413.47 4146.99,4401.01 4153.62,4384.78 4155.57,4374.25 4154.61,4364.51 4137.73,4335.28 4123.08,4318.67 4112.31,4302.05 4104.55,4286.02 4096.18,4276.53 4081.74,4264.76 4077.04,4259.72 4076.82,4256.44 4080.77,4234.27 4079.89,4231.13 4055.60,4214.02" allow="passenger"/>
    <edge id="-1168544743#1" from="3416301430" to="3416301488" priority="4" type="highway.unclassified" numLanes="1" speed="13.89" allow="passenger"/>
    <edge id="-1168798714" from="5914029537" to="268466766" priority="3" type="highway.residential" numLanes="1" speed="13.89" allow="passenger"/>
    <edge id="-1168799438#0" from="11143188255" to="264913335" priority="10" type="highway.tertiary" numLanes="1" speed="22.22" allow="passenger"/>
    <edge id="-1168799438#1" from="264913336" to="11143188255" priority="10" type="highway.tertiary" numLanes="1" speed="22.22" allow="passenger"/>
    <edge id="-1168801372" from="264913350" to="264913349" priority="3" type="highway.residential" numLanes="1" speed="13.89" allow="passenger"/>
    <edge id="-1175651170" from="6202129721" to="268488369" priority="3" type="highway.residential" numLanes="1" speed="13.89" allow="passenger"/>
    <edge id="-1175651171" from="2098681830" to="2098681868" priority="3" type="highway.residential" numLanes="1" speed="13.89" allow="passenger"/>
    <edge id="-1190782921" from="11056414794" to="8315169027" priority="3" type="highway.residential" numLanes="1" speed="13.89" allow="passenger"/>
    <edge id="-1190782922" from="11056414795" to="8140169603" priority="1" type="highway.service" numLanes="1" speed="5.56" shape="2344.49,4936.20 2361.74,4930.78 2375.56,4924.98 2381.21,4923.01" allow="passenger"/>
    <edge id="-1190782923" from="11056414797" to="11056414798" priority="1" type="highway.service" numLanes="1" speed="5.56" shape="2415.36,4718.85 2402.41,4716.74 2382.84,4716.89" allow="passenger"/>
    <edge id="-1190782924" from="11056414799" to="8315169130" priority="3" type="highway.residential" numLanes="1" speed="13.89" shape="2180.10,4541.99 2192.43,4544.51 2193.55,4544.89 2194.00,4546.15 2191.14,4556.89" allow="passenger"/>
    <edge id="-1190782925" from="11056414803" to="11056414804" priority="3" type="highway.residential" numLanes="1" speed="13.89" allow="passenger"/>
    <edge id="-1190782926" from="11056424405" to="11056424406" priority="3" type="highway.residential" numLanes="1" speed="13.89" allow="passenger"/>
    <edge id="-1190782927" from="11056424407" to="8315169028" priority="3" type="highway.residential" numLanes="1" speed="13.89" allow="passenger"/>
    <edge id="-1190782928" from="268300533" to="11056424414" priority="3" type="highway.residential" numLanes="1" speed="13.89" shape="2212.24,4630.44 2188.11,4626.78 2187.15,4626.20 2186.47,4625.16 2188.94,4612.47 2189.98,4610.54 2192.89,4609.94 2223.72,4618.13" allow="passenger"/>
    <edge id="-1201612996" from="11140455070" to="2812244796" priority="3" type="highway.residential" numLanes="1" speed="13.89" allow="passenger"/>
    <edge id="-1201612997" from="11140455076" to="268300050" priority="1" type="highway.service" numLanes="1" speed="5.56" shape="2443.38,4962.29 2439.64,4936.92 2439.49,4919.70 2438.39,4912.44" allow="passenger"/>
    <edge id="-1201612998" from="11140455077" to="11140455079" priority="3" type="highway.residential" numLanes="1" speed="13.89" shape="2048.73,4923.78 2094.28,4898.56 2132.35,4875.71" allow="passenger"/>
    <edge id="-1201620878" from="11140552598" to="11140576105" priority="1" type="highway.service" numLanes="1" speed="5.56" shape="2481.76,5497.84 2477.01,5476.04 2475.14,5474.18 2472.44,5472.70 2468.71,5471.51 2460.50,5471.29 2457.44,5470.40 2455.65,5468.32 2454.38,5464.83 2453.16,5455.62" allow="passenger"/>
    <edge id="-1201829324" from="11142660016" to="6366093457" priority="1" type="highway.service" numLanes="1" speed="5.56" allow="passenger"/>
    <edge id="-1201829325" from="11142660024" to="11142660029" priority="1" type="highway.service" numLanes="1" speed="5.56" shape="2012.09,4603.94 2024.91,4594.25 2049.56,4575.40" allow="passenger"/>