<?xml version='1.0' encoding='UTF-8'?>
<trips><trip id="roi_trip_0" type="veh_passenger" depart="0.0" from="-1205679702#0" to="423997744" /><trip id="roi_trip_1" type="veh_passenger" depart="25.71" from="1168283956" to="24160009" /><trip id="roi_trip_2" type="veh_passenger" depart="51.43" from="535922410" to="1168109380" /><trip id="roi_trip_3" type="veh_passenger" depart="77.14" from="199885792" to="428326182" /><trip id="roi_trip_4" type="veh_passenger" depart="102.86" from="24160020" to="314066421-AddedOffRampEdge" /><trip id="roi_trip_5" type="veh_passenger" depart="128.57" from="24160011" to="-1205679702#0" /><trip id="roi_trip_6" type="veh_passenger" depart="154.29" from="24160008" to="-1205679702#1" /><trip id="roi_trip_7" type="veh_passenger" depart="180.0" from="535922410" to="895708421" /><trip id="roi_trip_8" type="veh_passenger" depart="205.71" from="1205679702#1" to="24160007#2" /><trip id="roi_trip_9" type="veh_passenger" depart="231.43" from="199885792" to="423997744" /><trip id="roi_trip_10" type="veh_passenger" depart="257.14" from="895708421" to="535922410-AddedOnRampEdge" /><trip id="roi_trip_11" type="veh_passenger" depart="282.86" from="431981407" to="431989326" /><trip id="roi_trip_12" type="veh_passenger" depart="308.57" from="24160007#0" to="24160008" /><trip id="roi_trip_13" type="veh_passenger" depart="334.29" from="24160008" to="24160007#1" /><trip id="roi_trip_14" type="veh_passenger" depart="360.0" from="-1205679702#1" to="24160007#0" /><trip id="roi_trip_15" type="veh_passenger" depart="385.71" from="24160010" to="535922410-AddedOnRampEdge" /><trip id="roi_trip_16" type="veh_passenger" depart="411.43" from="1168283956" to="1205679702#1" /><trip id="roi_trip_17" type="veh_passenger" depart="437.14" from="1205679702#0" to="535922410-AddedOnRampEdge" /><trip id="roi_trip_18" type="veh_passenger" depart="462.86" from="98246932" to="24160020" /><trip id="roi_trip_19" type="veh_passenger" depart="488.57" from="24160010" to="535922409" /><trip id="roi_trip_20" type="veh_passenger" depart="514.29" from="431981407" to="25042886" /><trip id="roi_trip_21" type="veh_passenger" depart="540.0" from="24160020" to="25042886" /><trip id="roi_trip_22" type="veh_passenger" depart="565.71" from="-1205679702#0" to="98246932" /><trip id="roi_trip_23" type="veh_passenger" depart="591.43" from="1168109380" to="428326182" /><trip id="roi_trip_24" type="veh_passenger" depart="617.14" from="431989326" to="431981407" /><trip id="roi_trip_25" type="veh_passenger" depart="642.86" from="1205679702#0" to="1168273992-AddedOffRampEdge" /><trip id="roi_trip_26" type="veh_passenger" depart="668.57" from="24160007#1" to="24160011" /><trip id="roi_trip_27" type="veh_passenger" depart="694.29" from="1205679702#0" to="25042886" /><trip id="roi_trip_28" type="veh_passenger" depart="720.0" from="1205679702#0" to="24160007#1" /><trip id="roi_trip_29" type="veh_passenger" depart="745.71" from="-1205679702#1" to="428326182" /><trip id="roi_trip_30" type="veh_passenger" depart="771.43" from="24160007#0" to="24160007#1" /><trip id="roi_trip_31" type="veh_passenger" depart="797.14" from="199885792" to="-1205679702#1" /><trip id="roi_trip_32" type="veh_passenger" depart="822.86" from="1168283956" to="24160012#1" /><trip id="roi_trip_33" type="veh_passenger" depart="848.57" from="98246932" to="24160008" /><trip id="roi_trip_34" type="veh_passenger" depart="874.29" from="24160011" to="199885791" /><trip id="roi_trip_35" type="veh_passenger" depart="900.0" from="1168283956" to="24160010" /><trip id="roi_trip_36" type="veh_passenger" depart="925.71" from="431981408#0" to="98246932" /><trip id="roi_trip_37" type="veh_passenger" depart="951.43" from="-1205679702#1" to="423997744" /><trip id="roi_trip_38" type="veh_passenger" depart="977.14" from="1168273992-AddedOffRampEdge" to="535922410-AddedOnRampEdge" /><trip id="roi_trip_39" type="veh_passenger" depart="1002.86" from="535922410" to="24160011" /><trip id="roi_trip_40" type="veh_passenger" depart="1028.57" from="-1205679702#1" to="431981408#0" /><trip id="roi_trip_41" type="veh_passenger" depart="1054.29" from="24160011" to="24160020" /><trip id="roi_trip_42" type="veh_passenger" depart="1080.0" from="431981408#0" to="1163917760" /><trip id="roi_trip_43" type="veh_passenger" depart="1105.71" from="1205679702#0" to="535922410" /><trip id="roi_trip_44" type="veh_passenger" depart="1131.43" from="24160007#1" to="1205679702#1" /><trip id="roi_trip_45" type="veh_passenger" depart="1157.14" from="24160009" to="1168283956" /><trip id="roi_trip_46" type="veh_passenger" depart="1182.86" from="24160007#1" to="1205679702#1" /><trip id="roi_trip_47" type="veh_passenger" depart="1208.57" from="-1205679702#1" to="535922410-AddedOnRampEdge" /><trip id="roi_trip_48" type="veh_passenger" depart="1234.29" from="199885792" to="535922409" /><trip id="roi_trip_49" type="veh_passenger" depart="1260.0" from="1168273992-AddedOffRampEdge" to="428326182" /><trip id="roi_trip_50" type="veh_passenger" depart="1285.71" from="24160007#2" to="24160011" /><trip id="roi_trip_51" type="veh_passenger" depart="1311.43" from="24160012#1" to="24160007#2" /><trip id="roi_trip_52" type="veh_passenger" depart="1337.14" from="24160007#1" to="1163917760" /><trip id="roi_trip_53" type="veh_passenger" depart="1362.86" from="431981407" to="24160011" /><trip id="roi_trip_54" type="veh_passenger" depart="1388.57" from="423997744" to="199885792" /><trip id="roi_trip_55" type="veh_passenger" depart="1414.29" from="-1205679702#1" to="1168273992-AddedOffRampEdge" /><trip id="roi_trip_56" type="veh_passenger" depart="1440.0" from="1163917760" to="314066421-AddedOffRampEdge" /><trip id="roi_trip_57" type="veh_passenger" depart="1465.71" from="24160009" to="1168109380" /><trip id="roi_trip_58" type="veh_passenger" depart="1491.43" from="24160012#1" to="-1205679702#0" /><trip id="roi_trip_59" type="veh_passenger" depart="1517.14" from="24160020" to="199885791" /><trip id="roi_trip_60" type="veh_passenger" depart="1542.86" from="1205679702#0" to="24160008" /><trip id="roi_trip_61" type="veh_passenger" depart="1568.57" from="431981407" to="1168109380" /><trip id="roi_trip_62" type="veh_passenger" depart="1594.29" from="431981408#0" to="24160009" /><trip id="roi_trip_63" type="veh_passenger" depart="1620.0" from="535922409" to="535922410-AddedOnRampEdge" /><trip id="roi_trip_64" type="veh_passenger" depart="1645.71" from="24160020" to="199885792" /><trip id="roi_trip_65" type="veh_passenger" depart="1671.43" from="199885791" to="895708421" /><trip id="roi_trip_66" type="veh_passenger" depart="1697.14" from="199885791" to="431981407" /><trip id="roi_trip_67" type="veh_passenger" depart="1722.86" from="199885792" to="1163917760" /><trip id="roi_trip_68" type="veh_passenger" depart="1748.57" from="24160007#2" to="895708421" /><trip id="roi_trip_69" type="veh_passenger" depart="1774.29" from="199885792" to="431989326" /><trip id="roi_trip_70" type="veh_passenger" depart="1800.0" from="24160007#1" to="535922409" /><trip id="roi_trip_71" type="veh_passenger" depart="1825.71" from="98246932" to="199885792" /><trip id="roi_trip_72" type="veh_passenger" depart="1851.43" from="1168283956" to="1168273992-AddedOffRampEdge" /><trip id="roi_trip_73" type="veh_passenger" depart="1877.14" from="535922409" to="1205679702#1" /><trip id="roi_trip_74" type="veh_passenger" depart="1902.86" from="24160020" to="1168273992-AddedOffRampEdge" /><trip id="roi_trip_75" type="veh_passenger" depart="1928.57" from="423997744" to="1168273992-AddedOffRampEdge" /><trip id="roi_trip_76" type="veh_passenger" depart="1954.29" from="25042886" to="1168283956" /><trip id="roi_trip_77" type="veh_passenger" depart="1980.0" from="-1205679702#1" to="535922410" /><trip id="roi_trip_78" type="veh_passenger" depart="2005.71" from="423997744" to="1168273992-AddedOffRampEdge" /><trip id="roi_trip_79" type="veh_passenger" depart="2031.43" from="535922410" to="431989326" /><trip id="roi_trip_80" type="veh_passenger" depart="2057.14" from="24160007#0" to="1205679702#1" /><trip id="roi_trip_81" type="veh_passenger" depart="2082.86" from="535922410-AddedOnRampEdge" to="24160007#0" /><trip id="roi_trip_82" type="veh_passenger" depart="2108.57" from="24160007#1" to="1205679702#1" /><trip id="roi_trip_83" type="veh_passenger" depart="2134.29" from="199885792" to="24160009" /><trip id="roi_trip_84" type="veh_passenger" depart="2160.0" from="-1205679702#0" to="98246932" /><trip id="roi_trip_85" type="veh_passenger" depart="2185.71" from="535922409" to="-1205679702#0" /><trip id="roi_trip_86" type="veh_passenger" depart="2211.43" from="24160007#0" to="431981407" /><trip id="roi_trip_87" type="veh_passenger" depart="2237.14" from="314066421-AddedOffRampEdge" to="24160009" /><trip id="roi_trip_88" type="veh_passenger" depart="2262.86" from="1168109380" to="431981408#0" /><trip id="roi_trip_89" type="veh_passenger" depart="2288.57" from="431981407" to="895708421" /><trip id="roi_trip_90" type="veh_passenger" depart="2314.29" from="199885792" to="199885791" /><trip id="roi_trip_91" type="veh_passenger" depart="2340.0" from="1168109380" to="431981407" /><trip id="roi_trip_92" type="veh_passenger" depart="2365.71" from="535922410-AddedOnRampEdge" to="24160009" /><trip id="roi_trip_93" type="veh_passenger" depart="2391.43" from="-1205679702#1" to="535922409" /><trip id="roi_trip_94" type="veh_passenger" depart="2417.14" from="24160007#0" to="314066421-AddedOffRampEdge" /><trip id="roi_trip_95" type="veh_passenger" depart="2442.86" from="1168283956" to="431981408#0" /><trip id="roi_trip_96" type="veh_passenger" depart="2468.57" from="535922409" to="24160007#1" /><trip id="roi_trip_97" type="veh_passenger" depart="2494.29" from="535922409" to="314066421-AddedOffRampEdge" /><trip id="roi_trip_98" type="veh_passenger" depart="2520.0" from="24160008" to="199885791" /><trip id="roi_trip_99" type="veh_passenger" depart="2545.71" from="24160007#0" to="1205679702#0" /><trip id="roi_trip_100" type="veh_passenger" depart="2571.43" from="1168283956" to="24160011" /><trip id="roi_trip_101" type="veh_passenger" depart="2597.14" from="895708421" to="24160009" /><trip id="roi_trip_102" type="veh_passenger" depart="2622.86" from="24160010" to="431981407" /><trip id="roi_trip_103" type="veh_passenger" depart="2648.57" from="-1205679702#1" to="428326182" /><trip id="roi_trip_104" type="veh_passenger" depart="2674.29" from="1168283956" to="428326182" /><trip id="roi_trip_105" type="veh_passenger" depart="2700.0" from="24160007#1" to="431989326" /><trip id="roi_trip_106" type="veh_passenger" depart="2725.71" from="431989326" to="535922409" /><trip id="roi_trip_107" type="veh_passenger" depart="2751.43" from="24160007#0" to="1168283956" /><trip id="roi_trip_108" type="veh_passenger" depart="2777.14" from="-1205679702#0" to="24160009" /><trip id="roi_trip_109" type="veh_passenger" depart="2802.86" from="1163917760" to="24160009" /><trip id="roi_trip_110" type="veh_passenger" depart="2828.57" from="895708421" to="199885791" /><trip id="roi_trip_111" type="veh_passenger" depart="2854.29" from="-1205679702#1" to="431981408#0" /><trip id="roi_trip_112" type="veh_passenger" depart="2880.0" from="431981408#0" to="-1205679702#0" /><trip id="roi_trip_113" type="veh_passenger" depart="2905.71" from="431981408#0" to="428326182" /><trip id="roi_trip_114" type="veh_passenger" depart="2931.43" from="-1205679702#0" to="1168283956" /><trip id="roi_trip_115" type="veh_passenger" depart="2957.14" from="-1205679702#1" to="1168273992-AddedOffRampEdge" /><trip id="roi_trip_116" type="veh_passenger" depart="2982.86" from="423997744" to="24160012#1" /><trip id="roi_trip_117" type="veh_passenger" depart="3008.57" from="24160007#0" to="-1205679702#0" /><trip id="roi_trip_118" type="veh_passenger" depart="3034.29" from="25042886" to="895708421" /><trip id="roi_trip_119" type="veh_passenger" depart="3060.0" from="423997744" to="1163917760" /><trip id="roi_trip_120" type="veh_passenger" depart="3085.71" from="535922409" to="24160008" /><trip id="roi_trip_121" type="veh_passenger" depart="3111.43" from="535922409" to="1168109380" /><trip id="roi_trip_122" type="veh_passenger" depart="3137.14" from="24160008" to="24160007#1" /><trip id="roi_trip_123" type="veh_passenger" depart="3162.86" from="199885792" to="24160007#0" /><trip id="roi_trip_124" type="veh_passenger" depart="3188.57" from="423997744" to="1168283956" /><trip id="roi_trip_125" type="veh_passenger" depart="3214.29" from="428326182" to="199885791" /><trip id="roi_trip_126" type="veh_passenger" depart="3240.0" from="199885791" to="24160009" /><trip id="roi_trip_127" type="veh_passenger" depart="3265.71" from="-1205679702#1" to="24160010" /><trip id="roi_trip_128" type="veh_passenger" depart="3291.43" from="199885792" to="24160010" /><trip id="roi_trip_129" type="veh_passenger" depart="3317.14" from="535922409" to="24160007#0" /><trip id="roi_trip_130" type="veh_passenger" depart="3342.86" from="428326182" to="25042886" /><trip id="roi_trip_131" type="veh_passenger" depart="3368.57" from="431981408#0" to="-1205679702#1" /><trip id="roi_trip_132" type="veh_passenger" depart="3394.29" from="428326182" to="1205679702#0" /><trip id="roi_trip_133" type="veh_passenger" depart="3420.0" from="24160008" to="98246932" /><trip id="roi_trip_134" type="veh_passenger" depart="3445.71" from="25042886" to="535922410" /><trip id="roi_trip_135" type="veh_passenger" depart="3471.43" from="1168273992-AddedOffRampEdge" to="314066421-AddedOffRampEdge" /><trip id="roi_trip_136" type="veh_passenger" depart="3497.14" from="423997744" to="199885792" /><trip id="roi_trip_137" type="veh_passenger" depart="3522.86" from="-1205679702#0" to="98246932" /><trip id="roi_trip_138" type="veh_passenger" depart="3548.57" from="314066421-AddedOffRampEdge" to="-1205679702#0" /><trip id="roi_trip_139" type="veh_passenger" depart="3574.29" from="24160011" to="314066421-AddedOffRampEdge" /></trips>