<?xml version='1.0' encoding='UTF-8'?>
<trips><trip id="roi_trip_0" type="veh_passenger" depart="0.0" from="24160008" to="-1205679702#1" /><trip id="roi_trip_1" type="veh_passenger" depart="0.6" from="895708421" to="199885792" /><trip id="roi_trip_2" type="veh_passenger" depart="1.2" from="-1205679702#0" to="24160012#1" /><trip id="roi_trip_3" type="veh_passenger" depart="1.8" from="1168109380" to="535922410" /><trip id="roi_trip_4" type="veh_passenger" depart="2.4" from="431981407" to="199885792" /><trip id="roi_trip_5" type="veh_passenger" depart="3.0" from="98246932" to="1168283956" /><trip id="roi_trip_6" type="veh_passenger" depart="3.6" from="24160010" to="1168283956" /><trip id="roi_trip_7" type="veh_passenger" depart="4.2" from="24160009" to="25042886" /><trip id="roi_trip_8" type="veh_passenger" depart="4.8" from="1205679702#0" to="1205679702#1" /><trip id="roi_trip_9" type="veh_passenger" depart="5.4" from="431981408#0" to="24160009" /><trip id="roi_trip_10" type="veh_passenger" depart="6.0" from="535922410-AddedOnRampEdge" to="1168273992-AddedOffRampEdge" /><trip id="roi_trip_11" type="veh_passenger" depart="6.6" from="24160012#1" to="24160008" /><trip id="roi_trip_12" type="veh_passenger" depart="7.2" from="25042886" to="24160011" /><trip id="roi_trip_13" type="veh_passenger" depart="7.8" from="199885791" to="24160011" /><trip id="roi_trip_14" type="veh_passenger" depart="8.4" from="535922410" to="-1205679702#0" /><trip id="roi_trip_15" type="veh_passenger" depart="9.0" from="1168283956" to="423997744" /><trip id="roi_trip_16" type="veh_passenger" depart="9.6" from="314066421-AddedOffRampEdge" to="98246932" /><trip id="roi_trip_17" type="veh_passenger" depart="10.2" from="423997744" to="25042886" /><trip id="roi_trip_18" type="veh_passenger" depart="10.8" from="24160007#0" to="314066421-AddedOffRampEdge" /><trip id="roi_trip_19" type="veh_passenger" depart="11.4" from="535922410" to="24160009" /><trip id="roi_trip_20" type="veh_passenger" depart="12.0" from="895708421" to="423997744" /><trip id="roi_trip_21" type="veh_passenger" depart="12.6" from="24160010" to="431981408#0" /><trip id="roi_trip_22" type="veh_passenger" depart="13.2" from="24160009" to="24160008" /><trip id="roi_trip_23" type="veh_passenger" depart="13.8" from="431981407" to="24160020" /><trip id="roi_trip_24" type="veh_passenger" depart="14.4" from="1205679702#1" to="-1205679702#0" /><trip id="roi_trip_25" type="veh_passenger" depart="15.0" from="24160010" to="24160009" /><trip id="roi_trip_26" type="veh_passenger" depart="15.6" from="431981407" to="24160009" /><trip id="roi_trip_27" type="veh_passenger" depart="16.2" from="24160010" to="24160007#1" /><trip id="roi_trip_28" type="veh_passenger" depart="16.8" from="1163917760" to="314066421-AddedOffRampEdge" /><trip id="roi_trip_29" type="veh_passenger" depart="17.4" from="-1205679702#1" to="199885791" /><trip id="roi_trip_30" type="veh_passenger" depart="18.0" from="1168273992-AddedOffRampEdge" to="98246932" /><trip id="roi_trip_31" type="veh_passenger" depart="18.6" from="24160009" to="199885792" /><trip id="roi_trip_32" type="veh_passenger" depart="19.2" from="-1205679702#0" to="428326182" /><trip id="roi_trip_33" type="veh_passenger" depart="19.8" from="24160020" to="1168283956" /><trip id="roi_trip_34" type="veh_passenger" depart="20.4" from="24160008" to="1205679702#1" /><trip id="roi_trip_35" type="veh_passenger" depart="21.0" from="24160012#1" to="1168109380" /><trip id="roi_trip_36" type="veh_passenger" depart="21.6" from="24160007#0" to="431981407" /><trip id="roi_trip_37" type="veh_passenger" depart="22.2" from="423997744" to="24160009" /><trip id="roi_trip_38" type="veh_passenger" depart="22.8" from="24160010" to="24160012#1" /><trip id="roi_trip_39" type="veh_passenger" depart="23.4" from="24160012#1" to="535922409" /><trip id="roi_trip_40" type="veh_passenger" depart="24.0" from="1168109380" to="199885792" /><trip id="roi_trip_41" type="veh_passenger" depart="24.6" from="895708421" to="24160009" /><trip id="roi_trip_42" type="veh_passenger" depart="25.2" from="199885792" to="24160007#1" /><trip id="roi_trip_43" type="veh_passenger" depart="25.8" from="24160012#1" to="25042886" /><trip id="roi_trip_44" type="veh_passenger" depart="26.4" from="-1205679702#1" to="24160007#1" /><trip id="roi_trip_45" type="veh_passenger" depart="27.0" from="24160008" to="98246932" /><trip id="roi_trip_46" type="veh_passenger" depart="27.6" from="24160007#1" to="24160010" /><trip id="roi_trip_47" type="veh_passenger" depart="28.2" from="199885791" to="1168109380" /><trip id="roi_trip_48" type="veh_passenger" depart="28.8" from="24160012#1" to="24160008" /><trip id="roi_trip_49" type="veh_passenger" depart="29.4" from="895708421" to="428326182" /><trip id="roi_trip_50" type="veh_passenger" depart="30.0" from="428326182" to="24160007#1" /><trip id="roi_trip_51" type="veh_passenger" depart="30.6" from="1168109380" to="431989326" /><trip id="roi_trip_52" type="veh_passenger" depart="31.2" from="24160007#1" to="1168109380" /><trip id="roi_trip_53" type="veh_passenger" depart="31.8" from="1168109380" to="24160020" /><trip id="roi_trip_54" type="veh_passenger" depart="32.4" from="1163917760" to="24160010" /><trip id="roi_trip_55" type="veh_passenger" depart="33.0" from="24160011" to="24160009" /><trip id="roi_trip_56" type="veh_passenger" depart="33.6" from="199885791" to="24160007#0" /><trip id="roi_trip_57" type="veh_passenger" depart="34.2" from="199885791" to="1205679702#1" /><trip id="roi_trip_58" type="veh_passenger" depart="34.8" from="428326182" to="431981408#0" /><trip id="roi_trip_59" type="veh_passenger" depart="35.4" from="431981408#0" to="1205679702#0" /><trip id="roi_trip_60" type="veh_passenger" depart="36.0" from="24160008" to="1168273992-AddedOffRampEdge" /><trip id="roi_trip_61" type="veh_passenger" depart="36.6" from="24160008" to="431989326" /><trip id="roi_trip_62" type="veh_passenger" depart="37.2" from="535922409" to="314066421-AddedOffRampEdge" /><trip id="roi_trip_63" type="veh_passenger" depart="37.8" from="-1205679702#0" to="199885791" /><trip id="roi_trip_64" type="veh_passenger" depart="38.4" from="24160007#2" to="1168273992-AddedOffRampEdge" /><trip id="roi_trip_65" type="veh_passenger" depart="39.0" from="1168283956" to="535922409" /><trip id="roi_trip_66" type="veh_passenger" depart="39.6" from="199885792" to="98246932" /><trip id="roi_trip_67" type="veh_passenger" depart="40.2" from="431981408#0" to="24160007#2" /><trip id="roi_trip_68" type="veh_passenger" depart="40.8" from="25042886" to="535922410-AddedOnRampEdge" /><trip id="roi_trip_69" type="veh_passenger" depart="41.4" from="24160007#0" to="428326182" /><trip id="roi_trip_70" type="veh_passenger" depart="42.0" from="428326182" to="1168283956" /><trip id="roi_trip_71" type="veh_passenger" depart="42.6" from="24160007#2" to="24160009" /><trip id="roi_trip_72" type="veh_passenger" depart="43.2" from="24160011" to="431989326" /><trip id="roi_trip_73" type="veh_passenger" depart="43.8" from="24160010" to="-1205679702#1" /><trip id="roi_trip_74" type="veh_passenger" depart="44.4" from="-1205679702#1" to="98246932" /><trip id="roi_trip_75" type="veh_passenger" depart="45.0" from="535922410-AddedOnRampEdge" to="1168273992-AddedOffRampEdge" /><trip id="roi_trip_76" type="veh_passenger" depart="45.6" from="314066421-AddedOffRampEdge" to="24160009" /><trip id="roi_trip_77" type="veh_passenger" depart="46.2" from="1168273992-AddedOffRampEdge" to="199885791" /><trip id="roi_trip_78" type="veh_passenger" depart="46.8" from="-1205679702#1" to="24160007#1" /><trip id="roi_trip_79" type="veh_passenger" depart="47.4" from="98246932" to="24160010" /><trip id="roi_trip_80" type="veh_passenger" depart="48.0" from="24160008" to="431981407" /><trip id="roi_trip_81" type="veh_passenger" depart="48.6" from="98246932" to="199885791" /><trip id="roi_trip_82" type="veh_passenger" depart="49.2" from="535922409" to="199885792" /><trip id="roi_trip_83" type="veh_passenger" depart="49.8" from="895708421" to="-1205679702#0" /><trip id="roi_trip_84" type="veh_passenger" depart="50.4" from="98246932" to="1168273992-AddedOffRampEdge" /><trip id="roi_trip_85" type="veh_passenger" depart="51.0" from="535922410-AddedOnRampEdge" to="314066421-AddedOffRampEdge" /><trip id="roi_trip_86" type="veh_passenger" depart="51.6" from="199885791" to="24160007#0" /><trip id="roi_trip_87" type="veh_passenger" depart="52.2" from="431981408#0" to="24160020" /><trip id="roi_trip_88" type="veh_passenger" depart="52.8" from="431981408#0" to="24160012#1" /><trip id="roi_trip_89" type="veh_passenger" depart="53.4" from="24160009" to="24160020" /><trip id="roi_trip_90" type="veh_passenger" depart="54.0" from="1168283956" to="1205679702#1" /><trip id="roi_trip_91" type="veh_passenger" depart="54.6" from="1163917760" to="428326182" /><trip id="roi_trip_92" type="veh_passenger" depart="55.2" from="24160012#1" to="314066421-AddedOffRampEdge" /><trip id="roi_trip_93" type="veh_passenger" depart="55.8" from="24160008" to="431989326" /><trip id="roi_trip_94" type="veh_passenger" depart="56.4" from="431989326" to="-1205679702#0" /><trip id="roi_trip_95" type="veh_passenger" depart="57.0" from="423997744" to="24160007#1" /><trip id="roi_trip_96" type="veh_passenger" depart="57.6" from="24160011" to="24160010" /><trip id="roi_trip_97" type="veh_passenger" depart="58.2" from="1163917760" to="24160012#1" /><trip id="roi_trip_98" type="veh_passenger" depart="58.8" from="1168283956" to="431981407" /><trip id="roi_trip_99" type="veh_passenger" depart="59.4" from="431981407" to="24160009" /><trip id="roi_trip_100" type="veh_passenger" depart="60.0" from="24160007#1" to="-1205679702#1" /><trip id="roi_trip_101" type="veh_passenger" depart="60.6" from="-1205679702#1" to="24160020" /><trip id="roi_trip_102" type="veh_passenger" depart="61.2" from="1168109380" to="423997744" /><trip id="roi_trip_103" type="veh_passenger" depart="61.8" from="98246932" to="24160012#1" /><trip id="roi_trip_104" type="veh_passenger" depart="62.4" from="428326182" to="24160011" /><trip id="roi_trip_105" type="veh_passenger" depart="63.0" from="1163917760" to="1205679702#1" /><trip id="roi_trip_106" type="veh_passenger" depart="63.6" from="98246932" to="24160010" /><trip id="roi_trip_107" type="veh_passenger" depart="64.2" from="431981408#0" to="535922410-AddedOnRampEdge" /><trip id="roi_trip_108" type="veh_passenger" depart="64.8" from="24160012#1" to="24160008" /><trip id="roi_trip_109" type="veh_passenger" depart="65.4" from="24160012#1" to="431981407" /><trip id="roi_trip_110" type="veh_passenger" depart="66.0" from="1168283956" to="1168273992-AddedOffRampEdge" /><trip id="roi_trip_111" type="veh_passenger" depart="66.6" from="24160012#1" to="199885791" /><trip id="roi_trip_112" type="veh_passenger" depart="67.2" from="431981408#0" to="1163917760" /><trip id="roi_trip_113" type="veh_passenger" depart="67.8" from="895708421" to="1205679702#1" /><trip id="roi_trip_114" type="veh_passenger" depart="68.4" from="25042886" to="1205679702#1" /><trip id="roi_trip_115" type="veh_passenger" depart="69.0" from="24160020" to="199885791" /><trip id="roi_trip_116" type="veh_passenger" depart="69.6" from="24160010" to="423997744" /><trip id="roi_trip_117" type="veh_passenger" depart="70.2" from="-1205679702#1" to="431989326" /><trip id="roi_trip_118" type="veh_passenger" depart="70.8" from="428326182" to="24160009" /><trip id="roi_trip_119" type="veh_passenger" depart="71.4" from="199885792" to="1168283956" /><trip id="roi_trip_120" type="veh_passenger" depart="72.0" from="24160009" to="199885792" /><trip id="roi_trip_121" type="veh_passenger" depart="72.6" from="24160007#2" to="314066421-AddedOffRampEdge" /><trip id="roi_trip_122" type="veh_passenger" depart="73.2" from="535922409" to="24160020" /><trip id="roi_trip_123" type="veh_passenger" depart="73.8" from="1168109380" to="24160010" /><trip id="roi_trip_124" type="veh_passenger" depart="74.4" from="24160010" to="1168109380" /><trip id="roi_trip_125" type="veh_passenger" depart="75.0" from="24160007#2" to="24160008" /><trip id="roi_trip_126" type="veh_passenger" depart="75.6" from="24160008" to="24160020" /><trip id="roi_trip_127" type="veh_passenger" depart="76.2" from="535922409" to="24160011" /><trip id="roi_trip_128" type="veh_passenger" depart="76.8" from="535922409" to="24160008" /><trip id="roi_trip_129" type="veh_passenger" depart="77.4" from="1205679702#0" to="1163917760" /><trip id="roi_trip_130" type="veh_passenger" depart="78.0" from="431989326" to="1168109380" /><trip id="roi_trip_131" type="veh_passenger" depart="78.6" from="-1205679702#1" to="24160010" /><trip id="roi_trip_132" type="veh_passenger" depart="79.2" from="199885792" to="535922409" /><trip id="roi_trip_133" type="veh_passenger" depart="79.8" from="199885792" to="199885791" /><trip id="roi_trip_134" type="veh_passenger" depart="80.4" from="24160007#0" to="431981407" /><trip id="roi_trip_135" type="veh_passenger" depart="81.0" from="428326182" to="24160007#0" /><trip id="roi_trip_136" type="veh_passenger" depart="81.6" from="25042886" to="314066421-AddedOffRampEdge" /><trip id="roi_trip_137" type="veh_passenger" depart="82.2" from="314066421-AddedOffRampEdge" to="24160007#1" /><trip id="roi_trip_138" type="veh_passenger" depart="82.8" from="-1205679702#0" to="1205679702#0" /><trip id="roi_trip_139" type="veh_passenger" depart="83.4" from="24160011" to="24160007#1" /><trip id="roi_trip_140" type="veh_passenger" depart="84.0" from="1163917760" to="535922410" /><trip id="roi_trip_141" type="veh_passenger" depart="84.6" from="535922410" to="25042886" /><trip id="roi_trip_142" type="veh_passenger" depart="85.2" from="431981408#0" to="431989326" /><trip id="roi_trip_143" type="veh_passenger" depart="85.8" from="1168273992-AddedOffRampEdge" to="1163917760" /><trip id="roi_trip_144" type="veh_passenger" depart="86.4" from="1205679702#1" to="24160007#0" /><trip id="roi_trip_145" type="veh_passenger" depart="87.0" from="428326182" to="1168283956" /><trip id="roi_trip_146" type="veh_passenger" depart="87.6" from="199885792" to="24160009" /><trip id="roi_trip_147" type="veh_passenger" depart="88.2" from="98246932" to="1168283956" /><trip id="roi_trip_148" type="veh_passenger" depart="88.8" from="431989326" to="24160008" /><trip id="roi_trip_149" type="veh_passenger" depart="89.4" from="423997744" to="-1205679702#1" /><trip id="roi_trip_150" type="veh_passenger" depart="90.0" from="24160020" to="431981407" /><trip id="roi_trip_151" type="veh_passenger" depart="90.6" from="895708421" to="-1205679702#1" /><trip id="roi_trip_152" type="veh_passenger" depart="91.2" from="98246932" to="428326182" /><trip id="roi_trip_153" type="veh_passenger" depart="91.8" from="535922410-AddedOnRampEdge" to="1205679702#1" /><trip id="roi_trip_154" type="veh_passenger" depart="92.4" from="-1205679702#1" to="24160009" /><trip id="roi_trip_155" type="veh_passenger" depart="93.0" from="24160012#1" to="1205679702#1" /><trip id="roi_trip_156" type="veh_passenger" depart="93.6" from="314066421-AddedOffRampEdge" to="1168273992-AddedOffRampEdge" /><trip id="roi_trip_157" type="veh_passenger" depart="94.2" from="25042886" to="1168283956" /><trip id="roi_trip_158" type="veh_passenger" depart="94.8" from="1205679702#0" to="-1205679702#0" /><trip id="roi_trip_159" type="veh_passenger" depart="95.4" from="314066421-AddedOffRampEdge" to="199885791" /><trip id="roi_trip_160" type="veh_passenger" depart="96.0" from="24160020" to="314066421-AddedOffRampEdge" /><trip id="roi_trip_161" type="veh_passenger" depart="96.6" from="1205679702#1" to="1205679702#0" /><trip id="roi_trip_162" type="veh_passenger" depart="97.2" from="535922410-AddedOnRampEdge" to="24160009" /><trip id="roi_trip_163" type="veh_passenger" depart="97.8" from="-1205679702#0" to="1168283956" /><trip id="roi_trip_164" type="veh_passenger" depart="98.4" from="98246932" to="24160009" /><trip id="roi_trip_165" type="veh_passenger" depart="99.0" from="-1205679702#1" to="423997744" /><trip id="roi_trip_166" type="veh_passenger" depart="99.6" from="895708421" to="24160008" /><trip id="roi_trip_167" type="veh_passenger" depart="100.2" from="24160009" to="535922410-AddedOnRampEdge" /><trip id="roi_trip_168" type="veh_passenger" depart="100.8" from="199885791" to="24160009" /><trip id="roi_trip_169" type="veh_passenger" depart="101.4" from="1168283956" to="431981408#0" /><trip id="roi_trip_170" type="veh_passenger" depart="102.0" from="-1205679702#1" to="24160007#0" /><trip id="roi_trip_171" type="veh_passenger" depart="102.6" from="24160007#0" to="1168283956" /><trip id="roi_trip_172" type="veh_passenger" depart="103.2" from="24160011" to="24160007#2" /><trip id="roi_trip_173" type="veh_passenger" depart="103.8" from="895708421" to="535922410-AddedOnRampEdge" /><trip id="roi_trip_174" type="veh_passenger" depart="104.4" from="1168273992-AddedOffRampEdge" to="314066421-AddedOffRampEdge" /><trip id="roi_trip_175" type="veh_passenger" depart="105.0" from="1205679702#0" to="24160010" /><trip id="roi_trip_176" type="veh_passenger" depart="105.6" from="1168283956" to="1205679702#1" /><trip id="roi_trip_177" type="veh_passenger" depart="106.2" from="24160012#1" to="535922410" /><trip id="roi_trip_178" type="veh_passenger" depart="106.8" from="24160011" to="199885791" /><trip id="roi_trip_179" type="veh_passenger" depart="107.4" from="431989326" to="24160020" /><trip id="roi_trip_180" type="veh_passenger" depart="108.0" from="431989326" to="24160009" /><trip id="roi_trip_181" type="veh_passenger" depart="108.6" from="-1205679702#0" to="535922409" /><trip id="roi_trip_182" type="veh_passenger" depart="109.2" from="24160011" to="1163917760" /><trip id="roi_trip_183" type="veh_passenger" depart="109.8" from="428326182" to="-1205679702#1" /><trip id="roi_trip_184" type="veh_passenger" depart="110.4" from="428326182" to="1205679702#0" /><trip id="roi_trip_185" type="veh_passenger" depart="111.0" from="24160008" to="535922410-AddedOnRampEdge" /><trip id="roi_trip_186" type="veh_passenger" depart="111.6" from="98246932" to="1205679702#1" /><trip id="roi_trip_187" type="veh_passenger" depart="112.2" from="-1205679702#0" to="24160012#1" /><trip id="roi_trip_188" type="veh_passenger" depart="112.8" from="428326182" to="24160008" /><trip id="roi_trip_189" type="veh_passenger" depart="113.4" from="24160007#0" to="431981407" /><trip id="roi_trip_190" type="veh_passenger" depart="114.0" from="423997744" to="1168283956" /><trip id="roi_trip_191" type="veh_passenger" depart="114.6" from="199885791" to="1205679702#0" /><trip id="roi_trip_192" type="veh_passenger" depart="115.2" from="199885792" to="423997744" /><trip id="roi_trip_193" type="veh_passenger" depart="115.8" from="25042886" to="1163917760" /><trip id="roi_trip_194" type="veh_passenger" depart="116.4" from="1168273992-AddedOffRampEdge" to="24160012#1" /><trip id="roi_trip_195" type="veh_passenger" depart="117.0" from="431981407" to="24160010" /><trip id="roi_trip_196" type="veh_passenger" depart="117.6" from="1205679702#1" to="895708421" /><trip id="roi_trip_197" type="veh_passenger" depart="118.2" from="98246932" to="535922410-AddedOnRampEdge" /><trip id="roi_trip_198" type="veh_passenger" depart="118.8" from="24160012#1" to="98246932" /><trip id="roi_trip_199" type="veh_passenger" depart="119.4" from="1163917760" to="423997744" /><trip id="roi_trip_200" type="veh_passenger" depart="120.0" from="24160007#2" to="1163917760" /><trip id="roi_trip_201" type="veh_passenger" depart="120.6" from="24160011" to="314066421-AddedOffRampEdge" /><trip id="roi_trip_202" type="veh_passenger" depart="121.2" from="314066421-AddedOffRampEdge" to="535922410" /><trip id="roi_trip_203" type="veh_passenger" depart="121.8" from="24160007#1" to="431989326" /><trip id="roi_trip_204" type="veh_passenger" depart="122.4" from="24160007#1" to="423997744" /><trip id="roi_trip_205" type="veh_passenger" depart="123.0" from="24160009" to="431981408#0" /><trip id="roi_trip_206" type="veh_passenger" depart="123.6" from="1205679702#1" to="199885792" /><trip id="roi_trip_207" type="veh_passenger" depart="124.2" from="428326182" to="-1205679702#1" /><trip id="roi_trip_208" type="veh_passenger" depart="124.8" from="24160012#1" to="314066421-AddedOffRampEdge" /><trip id="roi_trip_209" type="veh_passenger" depart="125.4" from="24160007#2" to="431981407" /><trip id="roi_trip_210" type="veh_passenger" depart="126.0" from="314066421-AddedOffRampEdge" to="1168273992-AddedOffRampEdge" /><trip id="roi_trip_211" type="veh_passenger" depart="126.6" from="199885791" to="1163917760" /><trip id="roi_trip_212" type="veh_passenger" depart="127.2" from="535922410-AddedOnRampEdge" to="25042886" /><trip id="roi_trip_213" type="veh_passenger" depart="127.8" from="431981407" to="24160011" /><trip id="roi_trip_214" type="veh_passenger" depart="128.4" from="24160020" to="1163917760" /><trip id="roi_trip_215" type="veh_passenger" depart="129.0" from="895708421" to="1163917760" /><trip id="roi_trip_216" type="veh_passenger" depart="129.6" from="1205679702#0" to="24160010" /><trip id="roi_trip_217" type="veh_passenger" depart="130.2" from="24160020" to="1168283956" /><trip id="roi_trip_218" type="veh_passenger" depart="130.8" from="24160007#2" to="1168283956" /><trip id="roi_trip_219" type="veh_passenger" depart="131.4" from="199885791" to="24160010" /><trip id="roi_trip_220" type="veh_passenger" depart="132.0" from="423997744" to="428326182" /><trip id="roi_trip_221" type="veh_passenger" depart="132.6" from="535922410-AddedOnRampEdge" to="1168273992-AddedOffRampEdge" /><trip id="roi_trip_222" type="veh_passenger" depart="133.2" from="-1205679702#1" to="24160011" /><trip id="roi_trip_223" type="veh_passenger" depart="133.8" from="24160011" to="24160007#2" /><trip id="roi_trip_224" type="veh_passenger" depart="134.4" from="24160009" to="24160010" /><trip id="roi_trip_225" type="veh_passenger" depart="135.0" from="1205679702#0" to="25042886" /><trip id="roi_trip_226" type="veh_passenger" depart="135.6" from="1205679702#0" to="431981408#0" /><trip id="roi_trip_227" type="veh_passenger" depart="136.2" from="24160007#1" to="1168273992-AddedOffRampEdge" /><trip id="roi_trip_228" type="veh_passenger" depart="136.8" from="24160007#1" to="24160007#2" /><trip id="roi_trip_229" type="veh_passenger" depart="137.4" from="24160007#1" to="-1205679702#1" /><trip id="roi_trip_230" type="veh_passenger" depart="138.0" from="24160012#1" to="1168109380" /><trip id="roi_trip_231" type="veh_passenger" depart="138.6" from="1168273992-AddedOffRampEdge" to="24160010" /><trip id="roi_trip_232" type="veh_passenger" depart="139.2" from="1168273992-AddedOffRampEdge" to="-1205679702#1" /><trip id="roi_trip_233" type="veh_passenger" depart="139.8" from="24160012#1" to="24160008" /><trip id="roi_trip_234" type="veh_passenger" depart="140.4" from="24160007#2" to="895708421" /><trip id="roi_trip_235" type="veh_passenger" depart="141.0" from="-1205679702#0" to="24160008" /><trip id="roi_trip_236" type="veh_passenger" depart="141.6" from="98246932" to="24160008" /><trip id="roi_trip_237" type="veh_passenger" depart="142.2" from="25042886" to="24160012#1" /><trip id="roi_trip_238" type="veh_passenger" depart="142.8" from="423997744" to="1168273992-AddedOffRampEdge" /><trip id="roi_trip_239" type="veh_passenger" depart="143.4" from="25042886" to="-1205679702#0" /><trip id="roi_trip_240" type="veh_passenger" depart="144.0" from="24160012#1" to="1168283956" /><trip id="roi_trip_241" type="veh_passenger" depart="144.6" from="24160008" to="1168283956" /><trip id="roi_trip_242" type="veh_passenger" depart="145.2" from="423997744" to="428326182" /><trip id="roi_trip_243" type="veh_passenger" depart="145.8" from="1163917760" to="1168273992-AddedOffRampEdge" /><trip id="roi_trip_244" type="veh_passenger" depart="146.4" from="24160011" to="24160007#2" /><trip id="roi_trip_245" type="veh_passenger" depart="147.0" from="535922409" to="24160012#1" /><trip id="roi_trip_246" type="veh_passenger" depart="147.6" from="1168109380" to="535922409" /><trip id="roi_trip_247" type="veh_passenger" depart="148.2" from="431981408#0" to="24160007#2" /><trip id="roi_trip_248" type="veh_passenger" depart="148.8" from="24160010" to="535922410" /><trip id="roi_trip_249" type="veh_passenger" depart="149.4" from="24160010" to="24160007#0" /><trip id="roi_trip_250" type="veh_passenger" depart="150.0" from="24160007#1" to="25042886" /><trip id="roi_trip_251" type="veh_passenger" depart="150.6" from="24160020" to="535922410" /><trip id="roi_trip_252" type="veh_passenger" depart="151.2" from="895708421" to="24160012#1" /><trip id="roi_trip_253" type="veh_passenger" depart="151.8" from="535922410-AddedOnRampEdge" to="535922410" /><trip id="roi_trip_254" type="veh_passenger" depart="152.4" from="1168273992-AddedOffRampEdge" to="24160020" /><trip id="roi_trip_255" type="veh_passenger" depart="153.0" from="535922410-AddedOnRampEdge" to="314066421-AddedOffRampEdge" /><trip id="roi_trip_256" type="veh_passenger" depart="153.6" from="535922409" to="24160020" /><trip id="roi_trip_257" type="veh_passenger" depart="154.2" from="24160020" to="1205679702#0" /><trip id="roi_trip_258" type="veh_passenger" depart="154.8" from="24160012#1" to="428326182" /><trip id="roi_trip_259" type="veh_passenger" depart="155.4" from="895708421" to="24160011" /><trip id="roi_trip_260" type="veh_passenger" depart="156.0" from="1163917760" to="24160010" /><trip id="roi_trip_261" type="veh_passenger" depart="156.6" from="24160009" to="895708421" /><trip id="roi_trip_262" type="veh_passenger" depart="157.2" from="535922410-AddedOnRampEdge" to="1168273992-AddedOffRampEdge" /><trip id="roi_trip_263" type="veh_passenger" depart="157.8" from="24160020" to="431981407" /><trip id="roi_trip_264" type="veh_passenger" depart="158.4" from="314066421-AddedOffRampEdge" to="1168109380" /><trip id="roi_trip_265" type="veh_passenger" depart="159.0" from="314066421-AddedOffRampEdge" to="24160010" /><trip id="roi_trip_266" type="veh_passenger" depart="159.6" from="431989326" to="98246932" /><trip id="roi_trip_267" type="veh_passenger" depart="160.2" from="24160012#1" to="24160007#2" /><trip id="roi_trip_268" type="veh_passenger" depart="160.8" from="314066421-AddedOffRampEdge" to="24160010" /><trip id="roi_trip_269" type="veh_passenger" depart="161.4" from="1205679702#1" to="24160007#0" /><trip id="roi_trip_270" type="veh_passenger" depart="162.0" from="25042886" to="535922410" /><trip id="roi_trip_271" type="veh_passenger" depart="162.6" from="199885791" to="535922409" /><trip id="roi_trip_272" type="veh_passenger" depart="163.2" from="1168283956" to="-1205679702#1" /><trip id="roi_trip_273" type="veh_passenger" depart="163.8" from="98246932" to="535922410-AddedOnRampEdge" /><trip id="roi_trip_274" type="veh_passenger" depart="164.4" from="199885791" to="895708421" /><trip id="roi_trip_275" type="veh_passenger" depart="165.0" from="1168109380" to="535922409" /><trip id="roi_trip_276" type="veh_passenger" depart="165.6" from="314066421-AddedOffRampEdge" to="-1205679702#0" /><trip id="roi_trip_277" type="veh_passenger" depart="166.2" from="-1205679702#0" to="431989326" /><trip id="roi_trip_278" type="veh_passenger" depart="166.8" from="24160007#2" to="535922410" /><trip id="roi_trip_279" type="veh_passenger" depart="167.4" from="24160010" to="-1205679702#0" /><trip id="roi_trip_280" type="veh_passenger" depart="168.0" from="431989326" to="24160007#1" /><trip id="roi_trip_281" type="veh_passenger" depart="168.6" from="535922409" to="895708421" /><trip id="roi_trip_282" type="veh_passenger" depart="169.2" from="25042886" to="1205679702#0" /><trip id="roi_trip_283" type="veh_passenger" depart="169.8" from="1168273992-AddedOffRampEdge" to="1205679702#1" /><trip id="roi_trip_284" type="veh_passenger" depart="170.4" from="1205679702#0" to="24160007#1" /><trip id="roi_trip_285" type="veh_passenger" depart="171.0" from="1205679702#1" to="24160007#2" /><trip id="roi_trip_286" type="veh_passenger" depart="171.6" from="24160010" to="24160009" /><trip id="roi_trip_287" type="veh_passenger" depart="172.2" from="-1205679702#1" to="24160007#2" /><trip id="roi_trip_288" type="veh_passenger" depart="172.8" from="423997744" to="-1205679702#1" /><trip id="roi_trip_289" type="veh_passenger" depart="173.4" from="24160010" to="199885791" /><trip id="roi_trip_290" type="veh_passenger" depart="174.0" from="535922410-AddedOnRampEdge" to="428326182" /><trip id="roi_trip_291" type="veh_passenger" depart="174.6" from="895708421" to="1168273992-AddedOffRampEdge" /><trip id="roi_trip_292" type="veh_passenger" depart="175.2" from="431981407" to="-1205679702#1" /><trip id="roi_trip_293" type="veh_passenger" depart="175.8" from="24160007#2" to="535922409" /><trip id="roi_trip_294" type="veh_passenger" depart="176.4" from="1168109380" to="24160010" /><trip id="roi_trip_295" type="veh_passenger" depart="177.0" from="98246932" to="1168283956" /><trip id="roi_trip_296" type="veh_passenger" depart="177.6" from="1205679702#0" to="1168273992-AddedOffRampEdge" /><trip id="roi_trip_297" type="veh_passenger" depart="178.2" from="535922410" to="431989326" /><trip id="roi_trip_298" type="veh_passenger" depart="178.8" from="431981408#0" to="431981407" /><trip id="roi_trip_299" type="veh_passenger" depart="179.4" from="431989326" to="1168109380" /><trip id="roi_trip_300" type="veh_passenger" depart="180.0" from="-1205679702#1" to="24160012#1" /><trip id="roi_trip_301" type="veh_passenger" depart="180.6" from="25042886" to="1168273992-AddedOffRampEdge" /><trip id="roi_trip_302" type="veh_passenger" depart="181.2" from="1168109380" to="1168273992-AddedOffRampEdge" /><trip id="roi_trip_303" type="veh_passenger" depart="181.8" from="-1205679702#1" to="535922410-AddedOnRampEdge" /><trip id="roi_trip_304" type="veh_passenger" depart="182.4" from="428326182" to="1205679702#0" /><trip id="roi_trip_305" type="veh_passenger" depart="183.0" from="1205679702#0" to="24160012#1" /><trip id="roi_trip_30