<?xml version="1.0" encoding="UTF-8"?>

<!-- generated on 2025-05-04 11:53:42.295416 by randomTrips.py 9a83456
<configuration>
    <net-file value="input\simon_bolivar.net.xml"/>
    <output-trip-file value="input\simon_bolivar_type2_40.trips.xml"/>
    <prefix value="type2_40"/>
    <trip-attributes value="departLane='best' departSpeed='max' departPos='random'"/>
    <fringe-factor value="3"/>
    <seed value="40"/>
    <validate value="True"/>
    <insertion-density value="40.0"/>
</configuration>
-->

<!-- generated on 2025-05-04 11:53:27 by Eclipse SUMO duarouter Version 1.18.0
<configuration xmlns:xsi="http://www.w3.org/2001/XMLSchema-instance" xsi:noNamespaceSchemaLocation="http://sumo.dlr.de/xsd/duarouterConfiguration.xsd">

    <input>
        <net-file value="input\simon_bolivar.net.xml"/>
        <route-files value="input\simon_bolivar_type2_40.trips.xml"/>
    </input>

    <output>
        <output-file value="input\simon_bolivar_type2_40.trips.xml.tmp"/>
        <alternatives-output value="NUL"/>
        <write-trips value="true"/>
    </output>

    <time>
        <begin value="0"/>
        <end value="3600"/>
    </time>

    <report>
        <no-warnings value="true"/>
        <ignore-errors value="true"/>
        <no-step-log value="true"/>
    </report>

</configuration>
-->

<routes xmlns:xsi="http://www.w3.org/2001/XMLSchema-instance" xsi:noNamespaceSchemaLocation="http://sumo.dlr.de/xsd/routes_file.xsd">
    <trip id="type2_400" depart="0.00" departLane="best" departPos="random" departSpeed="max" from="-758831775#0" to="431981401"/>
    <trip id="type2_401" depart="0.25" departLane="best" departPos="random" departSpeed="max" from="-1168542192#1" to="-31896236#0"/>
    <trip id="type2_402" depart="0.49" departLane="best" departPos="random" departSpeed="max" from="889497761" to="24792220"/>
    <trip id="type2_403" depart="0.74" departLane="best" departPos="random" departSpeed="max" from="-24683524#1" to="-432768292#6"/>
    <trip id="type2_404" depart="0.99" departLane="best" departPos="random" departSpeed="max" from="431827302#0" to="1168283955"/>
    <trip id="type2_405" depart="1.23" departLane="best" departPos="random" departSpeed="max" from="-1168541557" to="432770526#1"/>
    <trip id="type2_406" depart="1.48" departLane="best" departPos="random" departSpeed="max" from="-24683527#1" to="24783924#10"/>
    <trip id="type2_407" depart="1.72" departLane="best" departPos="random" departSpeed="max" from="24699022#2" to="1168544743#1"/>
    <trip id="type2_408" depart="1.97" departLane="best" departPos="random" departSpeed="max" from="889497761" to="-25043044#0"/>
    <trip id="type2_409" depart="2.22" departLane="best" departPos="random" departSpeed="max" from="24683547#1" to="-24699041#0"/>
    <trip id="type2_4010" depart="2.46" departLane="best" departPos="random" departSpeed="max" from="894591151" to="-24791345#1"/>
    <trip id="type2_4011" depart="2.71" departLane="best" departPos="random" departSpeed="max" from="1163917760" to="376539201"/>
    <trip id="type2_4012" depart="2.96" departLane="best" departPos="random" departSpeed="max" from="431827306#2" to="-24683560#7"/>
    <trip id="type2_4014" depart="3.45" departLane="best" departPos="random" departSpeed="max" from="-25054595#0" to="25054220#0"/>
    <trip id="type2_4015" depart="3.69" departLane="best" departPos="random" departSpeed="max" from="-25042891#0" to="-25035452#0"/>
    <trip id="type2_4016" depart="3.94" departLane="best" departPos="random" departSpeed="max" from="-24699028" to="-376542025#0"/>
    <trip id="type2_4017" depart="4.19" departLane="best" departPos="random" departSpeed="max" from="334561591#4" to="1168799438#0"/>
    <trip id="type2_4018" depart="4.43" departLane="best" departPos="random" departSpeed="max" from="98246944#15" to="432770521#2"/>
    <trip id="type2_4019" depart="4.68" departLane="best" departPos="random" departSpeed="max" from="-24791344#1" to="1094282283"/>
    <trip id="type2_4020" depart="4.93" departLane="best" departPos="random" departSpeed="max" from="-1205367604" to="24683550#2"/>
    <trip id="type2_4021" depart="5.17" departLane="best" departPos="random" departSpeed="max" from="24683559#0" to="24683553"/>
    <trip id="type2_4022" depart="5.42" departLane="best" departPos="random" departSpeed="max" from="-1223982209" to="24699035"/>
    <trip id="type2_4023" depart="5.67" departLane="best" departPos="random" departSpeed="max" from="-24405506#4" to="376543474#3"/>
    <trip id="type2_4025" depart="6.16" departLane="best" departPos="random" departSpeed="max" from="895263280" to="668297056"/>
    <trip id="type2_4026" depart="6.40" departLane="best" departPos="random" departSpeed="max" from="-27408621#0" to="535922409"/>
    <trip id="type2_4027" depart="6.65" departLane="best" departPos="random" departSpeed="max" from="-25046426" to="238875364#2"/>
    <trip id="type2_4028" depart="6.90" departLane="best" departPos="random" departSpeed="max" from="24405501#0" to="276602814#2"/>
    <trip id="type2_4029" depart="7.14" departLane="best" departPos="random" departSpeed="max" from="-1205662257#3" to="-1205662259#0"/>
    <trip id="type2_4030" depart="7.39" departLane="best" departPos="random" departSpeed="max" from="-24683560#1" to="-865425327"/>
    <trip id="type2_4031" depart="7.64" departLane="best" departPos="random" departSpeed="max" from="293255543" to="25045239#1"/>
    <trip id="type2_4032" depart="7.88" departLane="best" departPos="random" departSpeed="max" from="-24405501#1" to="25046412#4"/>
    <trip id="type2_4033" depart="8.13" departLane="best" departPos="random" departSpeed="max" from="-24735608#1" to="-1168287297#3"/>
    <trip id="type2_4034" depart="8.38" departLane="best" departPos="random" departSpeed="max" from="-895216932#5" to="457320396#0"/>
    <trip id="type2_4035" depart="8.62" departLane="best" departPos="random" departSpeed="max" from="432770530" to="1168283948"/>
    <trip id="type2_4036" depart="8.87" departLane="best" departPos="random" departSpeed="max" from="293255546" to="-25045239#2"/>
    <trip id="type2_4038" depart="9.36" departLane="best" departPos="random" departSpeed="max" from="24791358" to="-25042920#3"/>
    <trip id="type2_4039" depart="9.61" departLane="best" departPos="random" departSpeed="max" from="-276638492#2" to="25054596#4"/>
    <trip id="type2_4040" depart="9.85" departLane="best" departPos="random" departSpeed="max" from="-1203849760" to="-25044930#0"/>
    <trip id="type2_4041" depart="10.10" departLane="best" departPos="random" departSpeed="max" from="293255911#2" to="-25054595#1"/>
    <trip id="type2_4042" depart="10.35" departLane="best" departPos="random" departSpeed="max" from="-432770520#2" to="1094268120"/>
    <trip id="type2_4043" depart="10.59" departLane="best" departPos="random" departSpeed="max" from="-895216913#1" to="-376543463"/>
    <trip id="type2_4044" depart="10.84" departLane="best" departPos="random" departSpeed="max" from="-25043040" to="293255911#1"/>
    <trip id="type2_4045" depart="11.08" departLane="best" departPos="random" departSpeed="max" from="25054585#1" to="668298285#0"/>
    <trip id="type2_4046" depart="11.33" departLane="best" departPos="random" departSpeed="max" from="-1190782926" to="-25042890"/>
    <trip id="type2_4047" depart="11.58" departLane="best" departPos="random" departSpeed="max" from="376543466#1" to="-376543466#2"/>
    <trip id="type2_4048" depart="11.82" departLane="best" departPos="random" departSpeed="max" from="276641591" to="-376539197"/>
    <trip id="type2_4050" depart="12.32" departLane="best" departPos="random" departSpeed="max" from="-432770531#3" to="199836131"/>
    <trip id="type2_4051" depart="12.56" departLane="best" departPos="random" departSpeed="max" from="-1168544743#0" to="422425537#1"/>
    <trip id="type2_4052" depart="12.81" departLane="best" departPos="random" departSpeed="max" from="24699019#1" to="-276636146#2"/>
    <trip id="type2_4053" depart="13.06" departLane="best" departPos="random" departSpeed="max" from="-895216896#1" to="24735616#3"/>
    <trip id="type2_4054" depart="13.30" departLane="best" departPos="random" departSpeed="max" from="535922409" to="-1168524081"/>
    <trip id="type2_4055" depart="13.55" departLane="best" departPos="random" departSpeed="max" from="535566666#1" to="24683557#2"/>
    <trip id="type2_4056" depart="13.79" departLane="best" departPos="random" departSpeed="max" from="-1190782925" to="-599922731"/>
    <trip id="type2_4057" depart="14.04" departLane="best" departPos="random" departSpeed="max" from="25046390#0" to="-24699036#2"/>
    <trip id="type2_4058" depart="14.29" departLane="best" departPos="random" departSpeed="max" from="24405522#1" to="24405521#1"/>
    <trip id="type2_4059" depart="14.53" departLane="best" departPos="random" departSpeed="max" from="24405503#1" to="-1168544743#0"/>
    <trip id="type2_4060" depart="14.78" departLane="best" departPos="random" departSpeed="max" from="-1168287296#0" to="855320888"/>
    <trip id="type2_4061" depart="15.03" departLane="best" departPos="random" departSpeed="max" from="-24699030#2" to="-25044929#1"/>
    <trip id="type2_4062" depart="15.27" departLane="best" departPos="random" departSpeed="max" from="24405490#0" to="-1168287296#2"/>
    <trip id="type2_4063" depart="15.52" departLane="best" departPos="random" departSpeed="max" from="25046412#3" to="25054585#1"/>
    <trip id="type2_4064" depart="15.77" departLane="best" departPos="random" departSpeed="max" from="-276636146#6" to="24699027#0"/>
    <trip id="type2_4065" depart="16.01" departLane="best" departPos="random" departSpeed="max" from="-895462375#0" to="25042906#6"/>
    <trip id="type2_4066" depart="16.26" departLane="best" departPos="random" departSpeed="max" from="-24699045#4" to="-1190782923"/>
    <trip id="type2_4067" depart="16.50" departLane="best" departPos="random" departSpeed="max" from="-199836131" to="626957566"/>
    <trip id="type2_4068" depart="16.75" departLane="best" departPos="random" departSpeed="max" from="98231048#0" to="-293255546"/>
    <trip id="type2_4069" depart="17.00" departLane="best" departPos="random" departSpeed="max" from="25046407#0" to="-25054588#1"/>
    <trip id="type2_4070" depart="17.24" departLane="best" departPos="random" departSpeed="max" from="24683533#1" to="-894591163#2"/>
    <trip id="type2_4071" depart="17.49" departLane="best" departPos="random" departSpeed="max" from="220666028#2" to="457320396#0"/>
    <trip id="type2_4072" depart="17.74" departLane="best" departPos="random" departSpeed="max" from="429690525" to="599923153#1"/>
    <trip id="type2_4073" depart="17.98" departLane="best" departPos="random" departSpeed="max" from="337623511#0" to="1201877287"/>
    <trip id="type2_4074" depart="18.23" departLane="best" departPos="random" departSpeed="max" from="-24783924#9" to="372239266#1"/>
    <trip id="type2_4077" depart="18.97" departLane="best" departPos="random" departSpeed="max" from="25054877" to="637275763#1"/>
    <trip id="type2_4078" depart="19.21" departLane="best" departPos="random" departSpeed="max" from="-1094261603#3" to="24735604#1"/>
    <trip id="type2_4079" depart="19.46" departLane="best" departPos="random" departSpeed="max" from="432762971" to="432770520#5"/>
    <trip id="type2_4081" depart="19.95" departLane="best" departPos="random" departSpeed="max" from="229472855#0" to="-432248094"/>
    <trip id="type2_4082" depart="20.20" departLane="best" departPos="random" departSpeed="max" from="24405507#5" to="-432777384"/>
    <trip id="type2_4083" depart="20.45" departLane="best" departPos="random" departSpeed="max" from="-24791344#1" to="24699017#2"/>
    <trip id="type2_4084" depart="20.69" departLane="best" departPos="random" departSpeed="max" from="-24405509#1" to="-24735618#1"/>
    <trip id="type2_4085" depart="20.94" departLane="best" departPos="random" departSpeed="max" from="24699025#1" to="25046429"/>
    <trip id="type2_4086" depart="21.18" departLane="best" departPos="random" departSpeed="max" from="-24405516#1" to="-24405509#1"/>
    <trip id="type2_4087" depart="21.43" departLane="best" departPos="random" departSpeed="max" from="-432770531#3" to="-24683551#0"/>
    <trip id="type2_4089" depart="21.92" departLane="best" departPos="random" departSpeed="max" from="-1094282281" to="1203849765"/>
    <trip id="type2_4090" depart="22.17" departLane="best" departPos="random" departSpeed="max" from="1205662259#2" to="1094279093#1"/>
    <trip id="type2_4091" depart="22.42" departLane="best" departPos="random" departSpeed="max" from="24405506#0" to="-24405520#1"/>
    <trip id="type2_4092" depart="22.66" departLane="best" departPos="random" departSpeed="max" from="-24699025#5" to="24699018#1"/>
    <trip id="type2_4093" depart="22.91" departLane="best" departPos="random" departSpeed="max" from="-1168542194#2" to="1168283948"/>
    <trip id="type2_4094" depart="23.15" departLane="best" departPos="random" departSpeed="max" from="-25042912#1" to="25054220#0"/>
    <trip id="type2_4095" depart="23.40" departLane="best" departPos="random" departSpeed="max" from="1168541555#1" to="24699025#7"/>
    <trip id="type2_4096" depart="23.65" departLane="best" departPos="random" departSpeed="max" from="-25054140" to="1205662255"/>
    <trip id="type2_4097" depart="23.89" departLane="best" departPos="random" departSpeed="max" from="-894591163#1" to="1201829326#1"/>
    <trip id="type2_4098" depart="24.14" departLane="best" departPos="random" departSpeed="max" from="24683552" to="1205662259#3"/>
    <trip id="type2_4099" depart="24.39" departLane="best" departPos="random" departSpeed="max" from="25054582#3" to="107938377#0"/>
    <trip id="type2_40100" depart="24.63" departLane="best" departPos="random" departSpeed="max" from="-25042891#2" to="-199568036#0"/>
    <trip id="type2_40101" depart="24.88" departLane="best" departPos="random" departSpeed="max" from="-1205662259#1" to="-1094279093#0"/>
    <trip id="type2_40102" depart="25.13" departLane="best" departPos="random" departSpeed="max" from="-1216978710" to="25042920#2"/>
    <trip id="type2_40103" depart="25.37" departLane="best" departPos="random" departSpeed="max" from="24735607#1" to="-376539196#0"/>
    <trip id="type2_40104" depart="25.62" departLane="best" departPos="random" departSpeed="max" from="372239271" to="-25054870#1"/>
    <trip id="type2_40105" depart="25.86" departLane="best" departPos="random" departSpeed="max" from="-431827303" to="25042919#1"/>
    <trip id="type2_40106" depart="26.11" departLane="best" departPos="random" departSpeed="max" from="-24783924#7" to="107938377#2"/>
    <trip id="type2_40107" depart="26.36" departLane="best" departPos="random" departSpeed="max" from="-25054217#1" to="25042922#3"/>
    <trip id="type2_40108" depart="26.60" departLane="best" departPos="random" departSpeed="max" from="-24699039#1" to="1094261603#1"/>
    <trip id="type2_40109" depart="26.85" departLane="best" departPos="random" departSpeed="max" from="25044935" to="25042915#1"/>
    <trip id="type2_40110" depart="27.10" departLane="best" departPos="random" departSpeed="max" from="769933617" to="-999609879"/>
    <trip id="type2_40111" depart="27.34" departLane="best" departPos="random" departSpeed="max" from="24405502#3" to="-25046400#0"/>
    <trip id="type2_40112" depart="27.59" departLane="best" departPos="random" departSpeed="max" from="-25111440#2" to="25054220#2"/>
    <trip id="type2_40113" depart="27.84" departLane="best" departPos="random" departSpeed="max" from="679900451#0" to="-877695144"/>
    <trip id="type2_40114" depart="28.08" departLane="best" departPos="random" departSpeed="max" from="-24405497" to="25042901"/>
    <trip id="type2_40115" depart="28.33" departLane="best" departPos="random" departSpeed="max" from="-1211392025" to="-293255732"/>
    <trip id="type2_40118" depart="29.07" departLane="best" departPos="random" departSpeed="max" from="25046397#0" to="-421121960"/>
    <trip id="type2_40119" depart="29.31" departLane="best" departPos="random" departSpeed="max" from="-432777381#2" to="24405522#0"/>
    <trip id="type2_40120" depart="29.56" departLane="best" departPos="random" departSpeed="max" from="1094261603#2" to="24683514#0"/>
    <trip id="type2_40121" depart="29.81" departLane="best" departPos="random" departSpeed="max" from="-25111440#2" to="1203849763"/>
    <trip id="type2_40122" depart="30.05" departLane="best" departPos="random" departSpeed="max" from="431989326" to="-25046433#0"/>
    <trip id="type2_40123" depart="30.30" departLane="best" departPos="random" departSpeed="max" from="-895216896#1" to="-25111441#2"/>
    <trip id="type2_40124" depart="30.54" departLane="best" departPos="random" departSpeed="max" from="-279628270" to="-25046407#2"/>
    <trip id="type2_40125" depart="30.79" departLane="best" departPos="random" departSpeed="max" from="293255909#1" to="1190782922"/>
    <trip id="type2_40126" depart="31.04" departLane="best" departPos="random" departSpeed="max" from="-1190782922" to="31896239#0"/>
    <trip id="type2_40127" depart="31.28" departLane="best" departPos="random" departSpeed="max" from="-534900637#4" to="-25043180#0"/>
    <trip id="type2_40128" depart="31.53" departLane="best" departPos="random" departSpeed="max" from="24405519#2" to="-24791344#1"/>
    <trip id="type2_40129" depart="31.78" departLane="best" departPos="random" departSpeed="max" from="1206753904#0" to="25044576#3"/>
    <trip id="type2_40132" depart="32.52" departLane="best" departPos="random" departSpeed="max" from="25035451#0" to="-376542025#1"/>
    <trip id="type2_40133" depart="32.76" departLane="best" departPos="random" departSpeed="max" from="-24791335#6" to="429376298"/>
    <trip id="type2_40134" depart="33.01" departLane="best" departPos="random" departSpeed="max" from="376543476#1" to="-25044568"/>
    <trip id="type2_40136" depart="33.50" departLane="best" departPos="random" departSpeed="max" from="-25045242#0" to="-894591201"/>
    <trip id="type2_40137" depart="33.75" departLane="best" departPos="random" departSpeed="max" from="-1205662260" to="-1094282285"/>
    <trip id="type2_40138" depart="33.99" departLane="best" departPos="random" departSpeed="max" from="31895154" to="-432807557"/>
    <trip id="type2_40139" depart="34.24" departLane="best" departPos="random" departSpeed="max" from="-293255544#2" to="-25042910#1"/>
    <trip id="type2_40140" depart="34.49" departLane="best" departPos="random" departSpeed="max" from="431775779" to="293256120#2"/>
    <trip id="type2_40141" depart="34.73" departLane="best" departPos="random" departSpeed="max" from="-199881960#1" to="535910617"/>
    <trip id="type2_40142" depart="34.98" departLane="best" departPos="random" departSpeed="max" from="-25042916#1" to="-24405502#1"/>
    <trip id="type2_40144" depart="35.47" departLane="best" departPos="random" departSpeed="max" from="-1168541557" to="-25054220#1"/>
    <trip id="type2_40145" depart="35.72" departLane="best" departPos="random" departSpeed="max" from="-25043040" to="1168798713"/>
    <trip id="type2_40146" depart="35.96" departLane="best" departPos="random" departSpeed="max" from="-25035600#1" to="25044928#1"/>
    <trip id="type2_40147" depart="36.21" departLane="best" departPos="random" departSpeed="max" from="293255909#0" to="276602814#2"/>
    <trip id="type2_40148" depart="36.46" departLane="best" departPos="random" departSpeed="max" from="-1201877287" to="1380250677"/>
    <trip id="type2_40149" depart="36.70" departLane="best" departPos="random" departSpeed="max" from="376543467" to="1205662259#4"/>
    <trip id="type2_40151" depart="37.20" departLane="best" departPos="random" departSpeed="max" from="25046420" to="-25042912#1"/>
    <trip id="type2_40152" depart="37.44" departLane="best" departPos="random" departSpeed="max" from="-24683561" to="431994306"/>
    <trip id="type2_40154" depart="37.93" departLane="best" departPos="random" departSpeed="max" from="24783924#3" to="-626957566"/>
    <trip id="type2_40155" depart="38.18" departLane="best" departPos="random" departSpeed="max" from="179181038#5" to="376545745#1"/>
    <trip id="type2_40156" depart="38.43" departLane="best" departPos="random" departSpeed="max" from="234800473#2" to="1175651171"/>
    <trip id="type2_40157" depart="38.67" departLane="best" departPos="random" departSpeed="max" from="-25042920#1" to="24791355#1"/>
    <trip id="type2_40158" depart="38.92" departLane="best" departPos="random" departSpeed="max" from="-24783924#4" to="422425537#2"/>
    <trip id="type2_40159" depart="39.17" departLane="best" departPos="random" departSpeed="max" from="25054228#3" to="420905011#1"/>
    <trip id="type2_40160" depart="39.41" departLane="best" departPos="random" departSpeed="max" from="24405506#3" to="535570456#1"/>
    <trip id="type2_40161" depart="39.66" departLane="best" departPos="random" departSpeed="max" from="-25042891#0" to="637275763#0"/>
    <trip id="type2_40163" depart="40.15" departLane="best" departPos="random" departSpeed="max" from="-1201844352" to="-293255546"/>
    <trip id="type2_40164" depart="40.40" departLane="best" departPos="random" departSpeed="max" from="-24791355#1" to="24683540#1"/>
    <trip id="type2_40165" depart="40.64" departLane="best" departPos="random" departSpeed="max" from="1080119679" to="276623569"/>
    <trip id="type2_40166" depart="40.89" departLane="best" departPos="random" departSpeed="max" from="179181038#3" to="1094282281"/>
    <trip id="type2_40167" depart="41.14" departLane="best" departPos="random" departSpeed="max" from="-24791350#3" to="25042903#0"/>
    <trip id="type2_40168" depart="41.38" departLane="best" departPos="random" departSpeed="max" from="1094251931" to="24405516#0"/>
    <trip id="type2_40169" depart="41.63" departLane="best" departPos="random" departSpeed="max" from="1094251933" to="-24683527#0"/>
    <trip id="type2_40170" depart="41.88" departLane="best" departPos="random" departSpeed="max" from="-24405503#0" to="-25044934#3"/>
    <trip id="type2_40171" depart="42.12" departLane="best" departPos="random" departSpeed="max" from="854227939" to="24683535#3"/>
    <trip id="type2_40172" depart="42.37" departLane="best" departPos="random" departSpeed="max" from="-25054138#1" to="1168541557"/>
    <trip id="type2_40173" depart="42.61" departLane="best" departPos="random" departSpeed="max" from="-25054590#2" to="-24735603#0"/>
    <trip id="type2_40174" depart="42.86" departLane="best" departPos="random" departSpeed="max" from="999672220" to="24683514#1"/>
    <trip id="type2_40175" depart="43.11" departLane="best" departPos="random" departSpeed="max" from="536042373" to="25045239#1"/>
    <trip id="type2_40176" depart="43.35" departLane="best" departPos="random" departSpeed="max" from="-1205662259#4" to="1168542193#1"/>
    <trip id="type2_40177" depart="43.60" departLane="best" departPos="random" departSpeed="max" from="-431827301" to="24735604#1"/>
    <trip id="type2_40178" depart="43.85" departLane="best" departPos="random" departSpeed="max" from="376541644" to="1094268120"/>
    <trip id="type2_40179" depart="44.09" departLane="best" departPos="random" departSpeed="max" from="-668298285#1" to="431981404#0"/>
    <trip id="type2_40180" depart="44.34" departLane="best" departPos="random" departSpeed="max" from="24699023" to="-999609876"/>
    <trip id="type2_40181" depart="44.59" departLane="best" departPos="random" departSpeed="max" from="-107938343" to="894591146"/>
    <trip id="type2_40182" depart="44.83" departLane="best" departPos="random" departSpeed="max" from="-889497760" to="25044937"/>
    <trip id="type2_40183" depart="45.08" departLane="best" departPos="random" departSpeed="max" from="293255543" to="-24791344#0"/>
    <trip id="type2_40184" depart="45.32" departLane="best" departPos="random" departSpeed="max" from="-199881967#0" to="24735608#1"/>
    <trip id="type2_40186" depart="45.82" departLane="best" departPos="random" departSpeed="max" from="-24683535#2" to="-376539192"/>
    <trip id="type2_40187" depart="46.06" departLane="best" departPos="random" departSpeed="max" from="-24683519#1" to="-25042919#2"/>
    <trip id="type2_40188" depart="46.31" departLane="best" departPos="random" departSpeed="max" from="-431827306#2" to="107938350#2"/>
    <trip id="type2_40189" depart="46.56" departLane="best" departPos="random" departSpeed="max" from="-432768291#4" to="276638492#1"/>
    <trip id="type2_40190" depart="46.80" departLane="best" departPos="random" departSpeed="max" from="-894591146" to="1168283955"/>
    <trip id="type2_40191" depart="47.05" departLane="best" departPos="random" departSpeed="max" from="-25042897" to="-24683561"/>
    <trip id="type2_40193" depart="47.54" departLane="best" departPos="random" departSpeed="max" from="-432770910#1" to="1216978711"/>
    <trip id="type2_40194" depart="47.79" departLane="best" departPos="random" departSpeed="max" from="334561891#0" to="-25042904"/>
    <trip id="type2_40195" depart="48.03" departLane="best" departPos="random" departSpeed="max" from="25042922#3" to="431981404#0"/>
    <trip id="type2_40196" depart="48.28" departLane="best" departPos="random" departSpeed="max" from="-25042901" to="1205118877"/>
    <trip id="type2_40199" depart="49.02" departLane="best" departPos="random" departSpeed="max" from="-25043042" to="-24791345#0"/>
    <trip id="type2_40200" depart="49.27" departLane="best" departPos="random" departSpeed="max" from="24699029#3" to="-376543476#2"/>
    <trip id="type2_40202" depart="49.76" departLane="best" departPos="random" departSpeed="max" from="24683548" to="1201877287"/>
    <trip id="type2_40203" depart="50.00" departLane="best" departPos="random" departSpeed="max" from="1203849760" to="-25111487#0"/>
    <trip id="type2_40205" depart="50.50" departLane="best" departPos="random" departSpeed="max" from="25042889#9" to="-679902284#1"/>
    <trip id="type2_40206" depart="50.74" departLane="best" departPos="random" departSpeed="max" from="-24735613" to="24405497"/>
    <trip id="type2_40207" depart="50.99" departLane="best" departPos="random" departSpeed="max" from="-334561591#6" to="25054146#1"/>
    <trip id="type2_40209" depart="51.48" departLane="best" departPos="random" departSpeed="max" from="-25046429" to="431775783-AddedOnRampEdge"/>
    <trip id="type2_40210" depart="51.73" departLane="best" departPos="random" departSpeed="max" from="293255730#0" to="-854227939"/>
    <trip id="type2_40211" depart="51.98" departLane="best" departPos="random" departSpeed="max" from="-372239259#2" to="24791354#0"/>
    <trip id="type2_40212" depart="52.22" departLane="best" departPos="random" departSpeed="max" from="25044576#0" to="-24735614"/>
    <trip id="type2_40213" depart="52.47" departLane="best" departPos="random" departSpeed="max" from="-421121876#1" to="-25042900#0"/>
    <trip id="type2_40214" depart="52.71" departLane="best" departPos="random" departSpeed="max" from="334561891#0" to="25042911#2"/>
    <trip id="type2_40215" depart="52.96" departLane="best" departPos="random" departSpeed="max" from="24683557#1" to="-895216933#1"/>
    <trip id="type2_40216" depart="53.21" departLane="best" departPos="random" departSpeed="max" from="-293255909#1" to="25054596#4"/>
    <trip id="type2_40217" depart="53.45" departLane="best" departPos="random" departSpeed="max" from="-1168311254" to="-25042904"/>
    <trip id="type2_40218" depart="53.70" departLane="best" departPos="random" departSpeed="max" from="-431981401" to="432770527"/>
    <trip id="type2_40219" depart="53.95" departLane="best" departPos="random" departSpeed="max" from="-24405516#0" to="431775778"/>
    <trip id="type2_40220" depart="54.19" departLane="best" departPos="random" departSpeed="max" from="-1205367604" to="24405514#0"/>
    <trip id="type2_40221" depart="54.44" departLane="best" departPos="random" departSpeed="max" from="-24405506#6" to="376543472#0"/>
    <trip id="type2_40222" depart="54.69" departLane="best" departPos="random" departSpeed="max" from="-1205118878" to="24735618#2"/>
    <trip id="type2_40223" depart="54.93" departLane="best" departPos="random" departSpeed="max" from="-229472855#0" to="376539201"/>
    <trip id="type2_40224" depart="55.18" departLane="best" departPos="random" departSpeed="max" from="-1190782926" to="429690524#0"/>
    <trip id="type2_40226" depart="55.67" departLane="best" departPos="random" departSpeed="max" from="24683557#1" to="-431827303"/>
    <trip id="type2_40227" depart="55.92" departLane="best" departPos="random" departSpeed="max" from="24405490#2" to="-24699030#2"/>
    <trip id="type2_40228" depart="56.16" departLane="best" departPos="random" departSpeed="max" from="314066418-AddedOnRampEdge" to="-754427031#0"/>
    <trip id="type2_40229" depart="56.41" departLane="best" departPos="random" departSpeed="max" from="1207682865" to="431775783"/>
    <trip id="type2_40230" depart="56.66" departLane="best" departPos="random" departSpeed="max" from="31896239#0" to="24683561"/>
    <trip id="type2_40232" depart="57.15" departLane="best" departPos="random" departSpeed="max" from="-24683535#6" to="-431827304#6"/>
    <trip id="type2_40233" depart="57.39" departLane="best" departPos="random" departSpeed="max" from="-24699025#4" to="-24683547#1"/>
    <trip id="type2_40234" depart="57.64" departLane="best" departPos="random" departSpeed="max" from="293256863" to="98246944#10"/>
    <trip id="type2_40235" depart="57.89" departLane="best" departPos="random" departSpeed="max" from="-376543469#1" to="25054138#5"/>
    <trip id="type2_40236" depart="58.13" departLane="best" departPos="random" departSpeed="max" from="24405519#2" to="-894591151"/>
    <trip id="type2_40237" depart="58.38" departLane="best" departPos="random" departSpeed="max" from="-1223982209" to="24735607#3"/>
    <trip id="type2_40238" depart="58.63" departLane="best" departPos="random" departSpeed="max" from="1205662260" to="302965727#14"/>