<?xml version="1.0" encoding="UTF-8"?>

<!-- generated on 2025-05-04 10:06:47 by Eclipse SUMO netconvert Version 1.18.0
<configuration xmlns:xsi="http://www.w3.org/2001/XMLSchema-instance" xsi:noNamespaceSchemaLocation="http://sumo.dlr.de/xsd/netconvertConfiguration.xsd">

    <input>
        <type-files value="input/simon_bolivar.typ.xml"/>
        <osm-files value="input/simon_bolivar.osm.xml"/>
    </input>

    <output>
        <output-file value="input/simon_bolivar.net.xml"/>
        <plain-output-prefix value="input/simon_bolivar_plain"/>
    </output>

    <projection>
        <proj.utm value="true"/>
    </projection>

    <processing>
        <geometry.remove value="true"/>
    </processing>

    <tls_building>
        <tls.guess value="true"/>
    </tls_building>

    <ramp_guessing>
        <ramps.guess value="true"/>
    </ramp_guessing>

    <report>
        <verbose value="true"/>
    </report>

</configuration>
-->

<connections version="1.16" xmlns:xsi="http://www.w3.org/2001/XMLSchema-instance" xsi:noNamespaceSchemaLocation="http://sumo.dlr.de/xsd/connections_file.xsd">
    <connection from="-107938343" to="-293255911#3" fromLane="0" toLane="0"/>
    <connection from="-107938343" to="293255911#4" fromLane="0" toLane="0"/>
    <connection from="-107938343" to="107938343" fromLane="0" toLane="0"/>

    <connection from="-107938350#0" to="25042889#9" fromLane="0" toLane="0"/>
    <connection from="-107938350#0" to="107938350#0" fromLane="0" toLane="0"/>

    <connection from="-107938350#1" to="-107938350#0" fromLane="0" toLane="0"/>
    <connection from="-107938350#1" to="-25046433#1" fromLane="0" toLane="0"/>
    <connection from="-107938350#1" to="107938350#1" fromLane="0" toLane="0"/>

    <connection from="-107938350#2" to="25046429" fromLane="0" toLane="0"/>
    <connection from="-107938350#2" to="-107938350#1" fromLane="0" toLane="0"/>
    <connection from="-107938350#2" to="-25046431" fromLane="0" toLane="0"/>
    <connection from="-107938350#2" to="107938350#2" fromLane="0" toLane="0"/>

    <connection from="-107938350#3" to="-24405490#0" fromLane="0" toLane="0"/>
    <connection from="-107938350#3" to="-107938350#2" fromLane="0" toLane="0"/>
    <connection from="-107938350#3" to="24405490#1" fromLane="0" toLane="0"/>
    <connection from="-107938350#3" to="107938350#3" fromLane="0" toLane="0"/>

    <connection from="-107938350#4" to="-107938350#3" fromLane="0" toLane="0"/>
    <connection from="-107938350#4" to="24405488" fromLane="0" toLane="0"/>
    <connection from="-107938350#4" to="107938350#4" fromLane="0" toLane="0"/>

    <connection from="-107938350#5" to="-107938350#4" fromLane="0" toLane="0"/>
    <connection from="-107938350#5" to="24405489#0" fromLane="0" toLane="0"/>
    <connection from="-107938350#5" to="107938350#5" fromLane="0" toLane="0"/>

    <connection from="-107938350#6" to="24405491" fromLane="0" toLane="0"/>
    <connection from="-107938350#6" to="-107938350#5" fromLane="0" toLane="0"/>
    <connection from="-107938350#6" to="107938350#6" fromLane="0" toLane="0"/>

    <connection from="-107938364" to="25054590#1" fromLane="0" toLane="0"/>
    <connection from="-107938364" to="-25054590#0" fromLane="0" toLane="0"/>
    <connection from="-107938364" to="107938364" fromLane="0" toLane="0"/>

    <connection from="-107938371" to="-276638492#1" fromLane="0" toLane="0"/>
    <connection from="-107938371" to="376539201" fromLane="0" toLane="0"/>
    <connection from="-107938371" to="276638492#2" fromLane="0" toLane="0"/>
    <connection from="-107938371" to="107938371" fromLane="0" toLane="0"/>

    <connection from="-107938377#0" to="-293255910#1" fromLane="0" toLane="0"/>
    <connection from="-107938377#0" to="293255909#0" fromLane="0" toLane="0"/>
    <connection from="-107938377#0" to="-24699045#6" fromLane="0" toLane="0"/>
    <connection from="-107938377#0" to="107938377#0" fromLane="0" toLane="0"/>

    <connection from="-107938377#1" to="1201838049" fromLane="0" toLane="0"/>
    <connection from="-107938377#1" to="-107938377#0" fromLane="0" toLane="0"/>
    <connection from="-107938377#1" to="107938377#1" fromLane="0" toLane="0"/>

    <connection from="-107938377#2" to="-107938377#1" fromLane="0" toLane="0"/>
    <connection from="-107938377#2" to="1201838046" fromLane="0" toLane="0"/>
    <connection from="-107938377#2" to="107938377#2" fromLane="0" toLane="0"/>

    <connection from="-107938377#3" to="999672219" fromLane="0" toLane="0"/>
    <connection from="-107938377#3" to="-107938377#2" fromLane="0" toLane="0"/>
    <connection from="-107938377#3" to="107938377#3" fromLane="0" toLane="0"/>

    <connection from="-107938377#4" to="-107938377#3" fromLane="0" toLane="0"/>
    <connection from="-107938377#4" to="-24699027#9" fromLane="0" toLane="0"/>
    <connection from="-107938377#4" to="107938377#4" fromLane="0" toLane="0"/>

    <connection from="-107938391#0" to="-293255911#1" fromLane="0" toLane="0"/>
    <connection from="-107938391#0" to="-107938371" fromLane="0" toLane="0"/>
    <connection from="-107938391#0" to="293255911#2" fromLane="0" toLane="0"/>
    <connection from="-107938391#0" to="107938391#0" fromLane="0" toLane="0"/>

    <connection from="-107938391#1" to="-376539203" fromLane="0" toLane="0"/>
    <connection from="-107938391#1" to="-107938391#0" fromLane="0" toLane="0"/>
    <connection from="-107938391#1" to="107938391#1" fromLane="0" toLane="0"/>

    <connection from="-107938391#2" to="-376539202" fromLane="0" toLane="0"/>
    <connection from="-107938391#2" to="-107938391#1" fromLane="0" toLane="0"/>
    <connection from="-107938391#2" to="107938391#2" fromLane="0" toLane="0"/>

    <connection from="-107938439" to="-293255911#2" fromLane="0" toLane="0"/>
    <connection from="-107938439" to="293255911#3" fromLane="0" toLane="0"/>
    <connection from="-107938439" to="107938439" fromLane="0" toLane="0"/>

    <connection from="-1079612058" to="1079612058" fromLane="0" toLane="0"/>

    <connection from="-1079867884#0" to="1079867884#0" fromLane="0" toLane="0"/>

    <connection from="-1079867884#1" to="-1079867884#0" fromLane="0" toLane="0"/>
    <connection from="-1079867884#1" to="1079867884#1" fromLane="0" toLane="0"/>

    <connection from="-1079867884#2" to="-1079867884#1" fromLane="0" toLane="0"/>
    <connection from="-1079867884#2" to="1079867884#2" fromLane="0" toLane="0"/>

    <connection from="-1080100547" to="1080100547" fromLane="0" toLane="0"/>

    <connection from="-1080119679" to="24405510" fromLane="0" toLane="0"/>
    <connection from="-1080119679" to="-1168305904" fromLane="0" toLane="0"/>
    <connection from="-1080119679" to="1080119679" fromLane="0" toLane="0"/>

    <connection from="-1080631189" to="1080631189" fromLane="0" toLane="0"/>

    <connection from="-1080631195#0" to="1080631196" fromLane="0" toLane="0"/>
    <connection from="-1080631195#0" to="-894591184#2" fromLane="0" toLane="0"/>
    <connection from="-1080631195#0" to="1080631195#0" fromLane="0" toLane="0"/>

    <connection from="-1091498703" to="1091498703" fromLane="0" toLane="0"/>

    <connection from="-1091498704" to="1091498704" fromLane="0" toLane="0"/>

    <connection from="-1092457245" to="25042887#1" fromLane="0" toLane="0"/>
    <connection from="-1092457245" to="1092457245" fromLane="0" toLane="0"/>

    <connection from="-1094251931" to="-1094251932" fromLane="0" toLane="0"/>
    <connection from="-1094251931" to="768280998" fromLane="0" toLane="0"/>
    <connection from="-1094251931" to="1094251931" fromLane="0" toLane="0"/>

    <connection from="-1094251932" to="-1206018453" fromLane="0" toLane="0"/>
    <connection from="-1094251932" to="25042914#0" fromLane="0" toLane="0"/>
    <connection from="-1094251932" to="1094251932" fromLane="0" toLane="0"/>

    <connection from="-1094251933" to="1094251933" fromLane="0" toLane="0"/>

    <connection from="-1094251934" to="1094251934" fromLane="0" toLane="0"/>

    <connection from="-1094251935" to="1094251935" fromLane="0" toLane="0"/>

    <connection from="-1094255525" to="25042903#0" fromLane="0" toLane="0"/>
    <connection from="-1094255525" to="421121973" fromLane="0" toLane="0"/>

    <connection from="-1094261602" to="1094261602" fromLane="0" toLane="0"/>

    <connection from="-1094261603#0" to="-24405502#1" fromLane="0" toLane="0"/>
    <connection from="-1094261603#0" to="24405502#2" fromLane="0" toLane="0"/>
    <connection from="-1094261603#0" to="1094261603#0" fromLane="0" toLane="0"/>

    <connection from="-1094261603#1" to="-1094261603#0" fromLane="0" toLane="0"/>
    <connection from="-1094261603#1" to="24405524" fromLane="0" toLane="0"/>
    <connection from="-1094261603#1" to="1094261603#1" fromLane="0" toLane="0"/>

    <connection from="-1094261603#2" to="-1094261603#1" fromLane="0" toLane="0"/>
    <connection from="-1094261603#2" to="650356319" fromLane="0" toLane="0"/>
    <connection from="-1094261603#2" to="1094261603#2" fromLane="0" toLane="0"/>

    <connection from="-1094261603#3" to="-1094261603#2" fromLane="0" toLane="0"/>

    <connection from="-1094261603#4" to="-1094261603#3" fromLane="0" toLane="0"/>
    <connection from="-1094261603#4" to="-24683610#2" fromLane="0" toLane="0"/>
    <connection from="-1094261603#4" to="1094261603#4" fromLane="0" toLane="0"/>

    <connection from="-1094261604" to="1094261604" fromLane="0" toLane="0"/>

    <connection from="-1094261605" to="1094261605" fromLane="0" toLane="0"/>

    <connection from="-1094268111" to="-25054596#2" fromLane="0" toLane="0"/>
    <connection from="-1094268111" to="25054596#3" fromLane="0" toLane="0"/>
    <connection from="-1094268111" to="1094268111" fromLane="0" toLane="0"/>

    <connection from="-1094268112" to="-25054596#3" fromLane="0" toLane="0"/>
    <connection from="-1094268112" to="25054596#4" fromLane="0" toLane="0"/>
    <connection from="-1094268112" to="754672455" fromLane="0" toLane="0"/>

    <connection from="-1094268118#0" to="1094268118#0" fromLane="0" toLane="0"/>

    <connection from="-1094268118#1" to="-1094268118#0" fromLane="0" toLane="0"/>
    <connection from="-1094268118#1" to="1223982208" fromLane="0" toLane="0"/>
    <connection from="-1094268118#1" to="1094268118#1" fromLane="0" toLane="0"/>

    <connection from="-1094268119" to="24791335#1" fromLane="0" toLane="0"/>
    <connection from="-1094268119" to="-24791335#0" fromLane="0" toLane="0"/>
    <connection from="-1094268119" to="1094268120" fromLane="0" toLane="0"/>

    <connection from="-1094279093#0" to="-534900637#1" fromLane="0" toLane="0"/>
    <connection from="-1094279093#0" to="534900637#2" fromLane="0" toLane="0"/>
    <connection from="-1094279093#0" to="1094279093#0" fromLane="0" toLane="0"/>

    <connection from="-1094282281" to="27347564#1" fromLane="0" toLane="0"/>
    <connection from="-1094282281" to="-27347564#0" fromLane="0" toLane="0"/>
    <connection from="-1094282281" to="1094282281" fromLane="0" toLane="0"/>

    <connection from="-1094282285" to="-334561591#3" fromLane="0" toLane="0"/>
    <connection from="-1094282285" to="334561591#4" fromLane="0" toLane="0"/>
    <connection from="-1094282285" to="-1094282286" fromLane="0" toLane="0"/>

    <connection from="-1094282286" to="-334561591#1" fromLane="0" toLane="0"/>
    <connection from="-1094282286" to="334561591#2" fromLane="0" toLane="0"/>
    <connection from="-1094282286" to="-1094282285" fromLane="0" toLane="0"/>

    <connection from="-1094282287" to="-895216916#1" fromLane="0" toLane="0"/>
    <connection from="-1094282287" to="-895216941" fromLane="0" toLane="0"/>
    <connection from="-1094282287" to="895216916#2" fromLane="0" toLane="0"/>

    <connection from="-1094298143#0" to="24683539" fromLane="0" toLane="0"/>
    <connection from="-1094298143#0" to="-420905084" fromLane="0" toLane="0"/>
    <connection from="-1094298143#0" to="637275759" fromLane="0" toLane="0"/>

    <connection from="-1094298143#1" to="1205693234#0" fromLane="0" toLane="0"/>
    <connection from="-1094298143#1" to="-1094298143#0" fromLane="0" toLane="0"/>
    <connection from="-1094298143#1" to="1094298143#1" fromLane="0" toLane="0"/>

    <connection from="-1094298144" to="24683535#0" fromLane="0" toLane="0"/>
    <connection from="-1094298144" to="1094298144" fromLane="0" toLane="0"/>

    <connection from="-1094298145" to="-24683532" fromLane="0" toLane="0"/>

    <connection from="-1094298146" to="-293255730#1" fromLane="0" toLane="0"/>
    <connection from="-1094298146" to="-431775780" fromLane="0" toLane="0"/>
    <connection from="-1094298146" to="1094298146" fromLane="0" toLane="0"/>

    <connection from="-1094298147" to="1094298147" fromLane="0" toLane="0"/>

    <connection from="-1094298148" to="1094298148" fromLane="0" toLane="0"/>

    <connection from="-1094316873" to="1094316873" fromLane="0" toLane="0"/>

    <connection from="-1094534966" to="420905011#0" fromLane="0" toLane="0"/>
    <connection from="-1094534966" to="1094534966" fromLane="0" toLane="0"/>

    <connection from="-1094541188#0" to="-376539778#0" fromLane="0" toLane="0"/>

    <connection from="-1094541188#1" to="-428334464" fromLane="0" toLane="0"/>
    <connection from="-1094541188#1" to="-1094541188#0" fromLane="0" toLane="0"/>
    <connection from="-1094541188#1" to="1094541188#1" fromLane="0" toLane="0"/>

    <connection from="-1100897258" to="-421121955" fromLane="0" toLane="0"/>
    <connection from="-1100897258" to="421121954" fromLane="0" toLane="0"/>
    <connection from="-1100897258" to="1100897258" fromLane="0" toLane="0"/>

    <connection from="-1168279796" to="-24791335#6" fromLane="0" toLane="0"/>
    <connection from="-1168279796" to="-302965728#5" fromLane="0" toLane="0"/>
    <connection from="-1168279796" to="1168279796" fromLane="0" toLane="0"/>

    <connection from="-1168283949" to="25054142#1" fromLane="0" toLane="0"/>
    <connection from="-1168283949" to="-25054142#0" fromLane="0" toLane="0"/>
    <connection from="-1168283949" to="1168283948" fromLane="0" toLane="0"/>

    <connection from="-1168287295" to="-507058715" fromLane="0" toLane="0"/>

    <connection from="-1168287296#0" to="-1168287297#4" fromLane="0" toLane="0"/>
    <connection from="-1168287296#0" to="24405492#0" fromLane="0" toLane="0"/>
    <connection from="-1168287296#0" to="1168287296#0" fromLane="0" toLane="0"/>

    <connection from="-1168287296#1" to="-25046420" fromLane="0" toLane="0"/>
    <connection from="-1168287296#1" to="-1168287296#0" fromLane="0" toLane="0"/>
    <connection from="-1168287296#1" to="1168287296#1" fromLane="0" toLane="0"/>

    <connection from="-1168287296#2" to="-25046423" fromLane="0" toLane="0"/>
    <connection from="-1168287296#2" to="-1168287296#1" fromLane="0" toLane="0"/>
    <connection from="-1168287296#2" to="1168287296#2" fromLane="0" toLane="0"/>

    <connection from="-1168287296#3" to="-25046421" fromLane="0" toLane="0"/>
    <connection from="-1168287296#3" to="-1168287296#2" fromLane="0" toLane="0"/>
    <connection from="-1168287296#3" to="1168287296#3" fromLane="0" toLane="0"/>

    <connection from="-1168287297#0" to="25042889#4" fromLane="0" toLane="0"/>
    <connection from="-1168287297#0" to="1168287297#0" fromLane="0" toLane="0"/>

    <connection from="-1168287297#1" to="-1168287297#0" fromLane="0" toLane="0"/>
    <connection from="-1168287297#1" to="25046426" fromLane="0" toLane="0"/>
    <connection from="-1168287297#1" to="1168287297#1" fromLane="0" toLane="0"/>

    <connection from="-1168287297#2" to="-1168287297#1" fromLane="0" toLane="0"/>
    <connection from="-1168287297#2" to="25046428" fromLane="0" toLane="0"/>
    <connection from="-1168287297#2" to="1168287297#2" fromLane="0" toLane="0"/>

    <connection from="-1168287297#3" to="-24405491" fromLane="0" toLane="0"/>
    <connection from="-1168287297#3" to="-1168287297#2" fromLane="0" toLane="0"/>
    <connection from="-1168287297#3" to="1168287297#3" fromLane="0" toLane="0"/>

    <connection from="-1168287297#4" to="-25046425" fromLane="0" toLane="0"/>
    <connection from="-1168287297#4" to="-1168287297#3" fromLane="0" toLane="0"/>
    <connection from="-1168287297#4" to="1168287297#4" fromLane="0" toLane="0"/>

    <connection from="-1168287299#0" to="-432248094" fromLane="0" toLane="0"/>
    <connection from="-1168287299#0" to="-626957571#1" fromLane="0" toLane="0"/>
    <connection from="-1168287299#0" to="1168287299#0" fromLane="0" toLane="0"/>

    <connection from="-1168287299#1" to="-1168287299#0" fromLane="0" toLane="0"/>
    <connection from="-1168287299#1" to="1205118877" fromLane="0" toLane="0"/>
    <connection from="-1168287299#1" to="1168287299#1" fromLane="0" toLane="0"/>

    <connection from="-1168305904" to="-24405507#5" fromLane="0" toLane="0"/>
    <connection from="-1168305904" to="1168305904" fromLane="0" toLane="0"/>

    <connection from="-1168305905#0" to="-24405509#1" fromLane="0" toLane="0"/>
    <connection from="-1168305905#0" to="25046388" fromLane="0" toLane="0"/>
    <connection from="-1168305905#0" to="1168305905#0" fromLane="0" toLane="0"/>

    <connection from="-1168305905#1" to="25046412#1" fromLane="0" toLane="0"/>
    <connection from="-1168305905#1" to="-1168305905#0" fromLane="0" toLane="0"/>
    <connection from="-1168305905#1" to="-25046412#0" fromLane="0" toLane="0"/>
    <connection from="-1168305905#1" to="1168305905#1" fromLane="0" toLane="0"/>

    <connection from="-1168305905#2" to="-25046391#1" fromLane="0" toLane="0"/>
    <connection from="-1168305905#2" to="-1168305905#1" fromLane="0" toLane="0"/>
    <connection from="-1168305905#2" to="1168305905#2" fromLane="0" toLane="0"/>

    <connection from="-1168311254" to="25042884" fromLane="0" toLane="0"/>
    <connection from="-1168311254" to="1168311254" fromLane="0" toLane="0"/>

    <connection from="-1168354449" to="1168354449" fromLane="0" toLane="0"/>

    <connection from="-1168361906" to="-538972998#0" fromLane="0" toLane="0"/>
    <connection from="-1168361906" to="-538972998#0" fromLane="1" toLane="1"/>
    <connection from="-1168361906" to="-25111487#1" fromLane="1" toLane="0"/>
    <connection from="-1168361906" to="538972998#1" fromLane="1" toLane="0"/>

    <connection from="-1168524081" to="337312509#1" fromLane="0" toLane="0"/>
    <connection from="-1168524081" to="-25043787" fromLane="0" toLane="0"/>
    <connection from="-1168524081" to="-337312509#0" fromLane="0" toLane="0"/>
    <connection from="-1168524081" to="25043789" fromLane="0" toLane="0"/>

    <connection from="-1168524082" to="1168524083" fromLane="0" toLane="0"/>

    <connection from="-1168541553" to="1168541555#2" fromLane="0" toLane="0"/>
    <connection from="-1168541553" to="-1168541555#1" fromLane="0" toLane="0"/>
    <connection from="-1168541553" to="1168541553" fromLane="0" toLane="0"/>

    <connection from="-1168541554" to="1168541555#1" fromLane="0" toLane="0"/>
    <connection from="-1168541554" to="-1168541555#0" fromLane="0" toLane="0"/>
    <connection from="-1168541554" to="1168541554" fromLane="0" toLane="0"/>

    <connection from="-1168541555#0" to="-24783924#10" fromLane="0" toLane="0"/>
    <connection from="-1168541555#0" to="24783924#11" fromLane="0" toLane="0"/>
    <connection from="-1168541555#0" to="1168541555#0" fromLane="0" toLane="0"/>

    <connection from="-1168541555#1" to="-1168541555#0" fromLane="0" toLane="0"/>
    <connection from="-1168541555#1" to="1168541554" fromLane="0" toLane="0"/>
    <connection from="-1168541555#1" to="1168541555#1" fromLane="0" toLane="0"/>

    <connection from="-1168541555#2" to="-1168541555#1" fromLane="0" toLane="0"/>
    <connection from="-1168541555#2" to="1168541553" fromLane="0" toLane="0"/>
    <connection from="-1168541555#2" to="1168541555#2" fromLane="0" toLane="0"/>

    <connection from="-1168541556" to="534900637#3" fromLane="0" toLane="0"/>
    <connection from="-1168541556" to="-534900637#2" fromLane="0" toLane="0"/>
    <connection from="-1168541556" to="1168541556" fromLane="0" toLane="0"/>

    <connection from="-1168541557" to="534900637#4" fromLane="0" toLane="0"/>
    <connection from="-1168541557" to="-534900637#3" fromLane="0" toLane="0"/>
    <connection from="-1168541557" to="1168541557" fromLane="0" toLane="0"/>

    <connection from="-1168541559" to="-895216916#0" fromLane="0" toLane="0"/>
    <connection from="-1168541559" to="895216916#1" fromLane="0" toLane="0"/>
    <connection from="-1168541559" to="1168541559" fromLane="0" toLane="0"/>

    <connection from="-1168541560" to="1168541560" fromLane="0" toLane="0"/>

    <connection from="-1168542191#0" to="1205662259#1" fromLane="0" toLane="0"/>
    <connection from="-1168542191#0" to="-1205662259#0" fromLane="0" toLane="0"/>
    <connection from="-1168542191#0" to="1168542191#0" fromLane="0" toLane="0"/>

    <connection from="-1168542191#1" to="-1168542191#0" fromLane="0" toLane="0"/>
    <connection from="-1168542191#1" to="-1205667518" fromLane="0" toLane="0"/>
    <connection from="-1168542191#1" to="1168542191#1" fromLane="0" toLane="0"/>

    <connection from="-1168542192#0" to="1168542194#2" fromLane="0" toLane="0"/>
    <connection from="-1168542192#0" to="-1168542194#1" fromLane="0" toLane="0"/>
    <connection from="-1168542192#0" to="1168542192#0" fromLane="0" toLane="0"/>

    <connection from="-1168542192#1" to="-1168542192#0" fromLane="0" toLane="0"/>
    <connection from="-1168542192#1" to="-1211392025" fromLane="0" toLane="0"/>
    <connection from="-1168542192#1" to="1168542192#1" fromLane="0" toLane="0"/>

    <connection from="-1168542193#0" to="1168542194#1" fromLane="0" toLane="0"/>
    <connection from="-1168542193#0" to="-1168542194#0" fromLane="0" toLane="0"/>
    <connection from="-1168542193#0" to="1168542193#0" fromLane="0" toLane="0"/>

    <connection from="-1168542193#1" to="1211392025" fromLane="0" toLane="0"/>
    <connection from="-1168542193#1" to="-1168542193#0" fromLane="0" toLane="0"/>
    <connection from="-1168542193#1" to="1168542193#1" fromLane="0" toLane="0"/>

    <connection from="-1168542194#0" to="1205662258" fromLane="0" toLane="0"/>
    <connection from="-1168542194#0" to="-1205662259#6" fromLane="0" toLane="0"/>
    <connection from="-1168542194#0" to="1168542194#0" fromLane="0" toLane="0"/>

    <connection from="-1168542194#1" to="-1168542194#0" fromLane="0" toLane="0"/>
    <connection from="-1168542194#1" to="1168542193#0" fromLane="0" toLane="0"/>
    <connection from="-1168542194#1" to="1168542194#1" fromLane="0" toLane="0"/>

    <connection from="-1168542194#2" to="-1168542194#1" fromLane="0" toLane="0"/>
    <connection from="-1168542194#2" to="1168542192#0" fromLane="0" toLane="0"/>
    <connection from="-1168542194#2" to="1168542194#2" fromLane="0" toLane="0"/>

    <connection from="-1168542194#3" to="-1168542194#2" fromLane="0" toLane="0"/>
    <connection from="-1168542194#3" to="1168542194#3" fromLane="0" toLane="0"/>

    <connection from="-1168542195#0" to="1205662259#5" fromLane="0" toLane="0"/>
    <connection from="-1168542195#0" to="-1205662259#4" fromLane="0" toLane="0"/>
    <connection from="-1168542195#0" to="1168542195#0" fromLane="0" toLane="0"/>

    <connection from="-1168542195#1" to="-1205662260" fromLane="0" toLane="0"/>
    <connection from="-1168542195#1" to="-1168542195#0" fromLane="0" toLane="0"/>
    <connection from="-1168542195#1" to="1168542195#1" fromLane="0" toLane="0"/>

    <connection from="-1168542196" to="-27408621#0" fromLane="0" toLane="0"/>
    <connection from="-1168542196" to="27408621#1" fromLane="0" toLane="0"/>
    <connection from="-1168542196" to="1168542196" fromLane="0" toLane="0"/>

    <connection from="-1168542197" to="1205662259#4" fromLane="0" toLane="0"/>
    <connection from="-1168542197" to="-1205662259#3" fromLane="0" toLane="0"/>
    <connection from="-1168542197" to="1168542197" fromLane="0" toLane="0"/>

    <connection from="-1168544743#0" to="-334561591#6" fromLane="0" toLane="0"/>
    <connection from="-1168544743#0" to="-334561590" fromLane="0" toLane="0"/>
    <connection from="-1168544743#0" to="334561591#7" fromLane="0" toLane="0"/>

    <connection from="-1168544743#1" to="1205370744" fromLane="0" toLane="0"/>
    <connection from="-1168544743#1" to="-1168544743#0" fromLane="0" toLane="0"/>
    <connection from="-1168544743#1" to="1168544743#1" fromLane="0" toLane="0"/>

    <connection from="-1168798714" to="1168798714" fromLane="0" toLane="0"/>

    <connection from="-1168799438#0" to="-292747017#1" fromLane="0" toLane="0"/>
    <connection from="-1168799438#0" to="24405494#0" fromLane="0" toLane="0"/>
    <connection from="-1168799438#0" to="1168799438#0" fromLane="0" toLane="0"/>

    <connection from="-1168799438#1" to="-1168799438#0" fromLane="0" toLane="0"/>
    <connection from="-1168799438#1" to="1201886220" fromLane="0" toLane="0"/>
    <connection from="-1168799438#1" to="1168799438#1" fromLane="0" toLane="0"/>

    <connection from="-1168801372" to="-854227944" fromLane="0" toLane="0"/>
    <connection from="-1168801372" to="25046409" fromLane="0" toLane="0"/>
    <connection from="-1168801372" to="1168801372" fromLane="0" toLane="0"/>

    <connection from="-1175651170" to="-24701461" fromLane="0" toLane="0"/>
    <connection from="-1175651170" to="1175651170" fromLane="0" toLane="0"/>

    <connection from="-1175651171" to="199881960#1" fromLane="0" toLane="0"/>
    <connection from="-1175651171" to="-199881960#0" fromLane="0" toLane="0"/>
    <connection from="-1175651171" to="1175651171" fromLane="0" toLane="0"/>

    <connection from="-1190782921" to="-24683560#7" fromLane="0" toLane="0"/>
    <connection from="-1190782921" to="24683560#8" fromLane="0" toLane="0"/>
    <connection from="-1190782921" to="1190782921" fromLane="0" toLane="0"/>

    <connection from="-1190782922" to="24683515#1" fromLane="0" toLane="0"/>
    <connection from="-1190782922" to="-874437282" fromLane="0" toLane="0"/>
    <connection from="-1190782922" to="-24683515#0" fromLane="0" toLane="0"/>
    <connection from="-1190782922" to="1190782922" fromLane="0" toLane="0"/>

    <connection from="-1190782923" to="1190782923" fromLane="0" toLane="0"/>

    <connection from="-1190782924" to="-894591163#0" fromLane="0" toLane="0"/>
    <connection from="-1190782924" to="894591163#1" fromLane="0" toLane="0"/>
    <connection from="-1190782924" to="1190782924" fromLane="0" toLane="0"/>

    <connection from="-1190782925" to="-894591163#1" fromLane="0" toLane="0"/>
    <connection from="-1190782925" to="894591163#2" fromLane="0" toLane="0"/>
    <connection from="-1190782925" to="1190782925" fromLane="0" toLane="0"/>

    <connection from="-1190782926" to="-894591163#2" fromLane="0" toLane="0"/>
    <connection from="-1190782926" to="894591163#3" fromLane="0" toLane="0"/>
    <connection from="-1190782926" to="1190782926" fromLane="0" toLane="0"/>

    <connection from="-1190782927" to="-894591163#3" fromLane="0" toLane="0"/>
    <connection from="-1190782927" to="894591187" fromLane="0" toLane="0"/>
    <connection from="-1190782927" to="1190782927" fromLane="0" toLane="0"/>

    <connection from="-1190782928" to="24683560#4" fromLane="0" toLane="0"/>
    <connection from="-1190782928" to="-24683560#3" fromLane="0" toLane="0"/>
    <connection from="-1190782928" to="1190782928" fromLane="0" toLane="0"/>

    <connection from="-1201612996" to="-276636146#1" fromLane="0" toLane="0"/>
    <connection from="-1201612996" to="276636146#2" fromLane="0" toLane="0"/>
    <connection from="-1201612996" to="1201612996" fromLane="0" toLane="0"/>

    <connection from="-1201612997" to="-24683520" fromLane="0" toLane="0"/>
    <connection from="-1201612997" to="305589151#0" fromLane="0" toLane="0"/>
    <connection from="-1201612997" to="1201612997" fromLane="0" toLane="0"/>

    <connection from="-1201612998" to="276636146#1" fromLane="0" toLane="0"/>
    <connection from="-1201612998" to="-276636146#0" fromLane="0" toLane="0"/>
    <connection from="-1201612998" to="1201612998" fromLane="0" toLane="0"/>

    <connection from="-1201620878" to="-431827304#0" fromLane="0" toLane="0"/>
    <connection from="-1201620878" to="431827304#1" fromLane="0" toLane="0"/>
    <connection from="-1201620878" to="1201620878" fromLane="0" toLane="0"/>

    <connection from="-1201829324" to="1168279797" fromLane="0" toLane="0"/>
    <connection from="-1201829324" to="1201829324" fromLane="0" toLane="0"/>

    <connection from="-1201829325" to="1201829326#1" fromLane="0" toLane="0"/>
    <connection from="-1201829325" to="-1201829326#0" fromLane="0" toLane="0"/>
    <connection from="-1201829325" to="1201829325" fromLane="0" toLane="0"/>

    <connection from="-1201829326#0" to="98246944#2" fromLane="0" toLane="0"/>
    <connection from="-1201829326#0" to="1201829326#0" fromLane="0" toLane="0"/>

    <connection from="-1201829326#1" to="-1201829326#0" fromLane="0" toLane="0"/>
    <connection from="-1201829326#1" to="1201829325" fromLane="0" toLane="0"/>
    <connection from="-1201829326#1" to="1201829326#1" fromLane="0" toLane="0"/>

    <connection from="-1201838045" to="-24699027#7" fromLane="0" toLane="0"/>
    <connection from="-1201838045" to="24699027#8" fromLane="0" toLane="0"/>
    <connection from="-1201838045" to="1201838045" fromLane="0" toLane="0"/>

    <connection from="-1201838046" to="107938377#2" fromLane="0" toLane="0"/>
    <connection from="-1201838046" to="-107938377#1" fromLane="0" toLane="0"/>
    <connection from="-1201838046" to="1201838046" fromLane="0" toLane="0"/>

    <connection from="-1201838047" to="-24699027#8" fromLane="0" toLane="0"/>
    <connection from="-1201838047" to="24699027#9" fromLane="0" toLane="0"/>
    <connection from="-1201838047" to="1201838047" fromLane="0" toLane="0"/>

    <connection from="-1201838048" to="429531573#1" fromLane="0" toLane="0"/>
    <connection from="-1201838048" to="-429531573#0" fromLane="0" toLane="0"/>