<?xml version='1.0' encoding='UTF-8'?>
<trips><trip id="roi_trip_0" type="veh_passenger" depart="0.0" from="423997744" to="24160011" /><trip id="roi_trip_1" type="veh_passenger" depart="90.0" from="25042886" to="1168273992-AddedOffRampEdge" /><trip id="roi_trip_2" type="veh_passenger" depart="180.0" from="428326182" to="314066421-AddedOffRampEdge" /><trip id="roi_trip_3" type="veh_passenger" depart="270.0" from="1205679702#0" to="24160007#1" /><trip id="roi_trip_4" type="veh_passenger" depart="360.0" from="-1205679702#0" to="98246932" /><trip id="roi_trip_5" type="veh_passenger" depart="450.0" from="24160009" to="423997744" /><trip id="roi_trip_6" type="veh_passenger" depart="540.0" from="1205679702#0" to="535922410-AddedOnRampEdge" /><trip id="roi_trip_7" type="veh_passenger" depart="630.0" from="98246932" to="24160010" /><trip id="roi_trip_8" type="veh_passenger" depart="720.0" from="24160011" to="1205679702#1" /><trip id="roi_trip_9" type="veh_passenger" depart="810.0" from="24160007#2" to="24160020" /><trip id="roi_trip_10" type="veh_passenger" depart="900.0" from="199885791" to="199885792" /><trip id="roi_trip_11" type="veh_passenger" depart="990.0" from="428326182" to="423997744" /><trip id="roi_trip_12" type="veh_passenger" depart="1080.0" from="431981408#0" to="428326182" /><trip id="roi_trip_13" type="veh_passenger" depart="1170.0" from="1168283956" to="24160007#2" /><trip id="roi_trip_14" type="veh_passenger" depart="1260.0" from="199885792" to="428326182" /><trip id="roi_trip_15" type="veh_passenger" depart="1350.0" from="199885791" to="24160007#2" /><trip id="roi_trip_16" type="veh_passenger" depart="1440.0" from="24160010" to="-1205679702#1" /><trip id="roi_trip_17" type="veh_passenger" depart="1530.0" from="24160007#1" to="-1205679702#1" /><trip id="roi_trip_18" type="veh_passenger" depart="1620.0" from="24160011" to="1168273992-AddedOffRampEdge" /><trip id="roi_trip_19" type="veh_passenger" depart="1710.0" from="24160007#1" to="1205679702#0" /><trip id="roi_trip_20" type="veh_passenger" depart="1800.0" from="24160007#1" to="-1205679702#1" /><trip id="roi_trip_21" type="veh_passenger" depart="1890.0" from="1168283956" to="-1205679702#1" /><trip id="roi_trip_22" type="veh_passenger" depart="1980.0" from="24160012#1" to="535922409" /><trip id="roi_trip_23" type="veh_passenger" depart="2070.0" from="24160020" to="895708421" /><trip id="roi_trip_24" type="veh_passenger" depart="2160.0" from="535922409" to="-1205679702#1" /><trip id="roi_trip_25" type="veh_passenger" depart="2250.0" from="431989326" to="431981407" /><trip id="roi_trip_26" type="veh_passenger" depart="2340.0" from="24160007#1" to="431989326" /><trip id="roi_trip_27" type="veh_passenger" depart="2430.0" from="24160007#2" to="428326182" /><trip id="roi_trip_28" type="veh_passenger" depart="2520.0" from="24160007#1" to="24160011" /><trip id="roi_trip_29" type="veh_passenger" depart="2610.0" from="24160008" to="199885792" /><trip id="roi_trip_30" type="veh_passenger" depart="2700.0" from="1205679702#0" to="199885792" /><trip id="roi_trip_31" type="veh_passenger" depart="2790.0" from="24160020" to="24160007#2" /><trip id="roi_trip_32" type="veh_passenger" depart="2880.0" from="431989326" to="24160007#2" /><trip id="roi_trip_33" type="veh_passenger" depart="2970.0" from="24160020" to="428326182" /><trip id="roi_trip_34" type="veh_passenger" depart="3060.0" from="-1205679702#1" to="1205679702#1" /><trip id="roi_trip_35" type="veh_passenger" depart="3150.0" from="535922409" to="1168273992-AddedOffRampEdge" /><trip id="roi_trip_36" type="veh_passenger" depart="3240.0" from="431989326" to="1205679702#0" /><trip id="roi_trip_37" type="veh_passenger" depart="3330.0" from="1168109380" to="1163917760" /><trip id="roi_trip_38" type="veh_passenger" depart="3420.0" from="535922410-AddedOnRampEdge" to="431989326" /><trip id="roi_trip_39" type="veh_passenger" depart="3510.0" from="199885792" to="535922410" /></trips>