<?xml version="1.0" encoding="UTF-8"?>

<!-- generated on 2025-05-04 11:46:34 by Eclipse SUMO duarouter Version 1.18.0
<configuration xmlns:xsi="http://www.w3.org/2001/XMLSchema-instance" xsi:noNamespaceSchemaLocation="http://sumo.dlr.de/xsd/duarouterConfiguration.xsd">

    <input>
        <net-file value="D:\TrAD-Quito\sumo\input\simon_bolivar.net.xml"/>
        <additional-files value="D:\TrAD-Quito\sumo\input\vehicles.add.xml"/>
        <route-files value="D:\TrAD-Quito\sumo\input\simon_bolivar_roi.trips.xml"/>
    </input>

    <output>
        <output-file value="D:\TrAD-Quito\sumo\input\simon_bolivar_roi_140.rou.xml"/>
    </output>

</configuration>
-->

<routes xmlns:xsi="http://www.w3.org/2001/XMLSchema-instance" xsi:noNamespaceSchemaLocation="http://sumo.dlr.de/xsd/routes_file.xsd">
    <vType id="veh_passenger" length="5.00" minGap="2.50" maxSpeed="70.00" guiShape="passenger" accel="2.6" decel="4.5" sigma="0.5"/>
    <vehicle id="roi_trip_0" type="veh_passenger" depart="0.00">
        <route edges="314066421-AddedOffRampEdge 24160020"/>
    </vehicle>
    <vehicle id="roi_trip_1" type="veh_passenger" depart="0.60">
        <route edges="1205679702#0 -1205679702#0 24160007#1 24160007#2 431981408#1 431981408#2 238875364#0 238875364#1 238875364#2 24683519#0 24683519#1 431994306 -80477039#1 -80477039#0 -422425537#1 -422425537#0 24683514#0 24683514#1 431827297#0 431827297#1 431827297#2 431827297#3 314066417 895708421 431989326 24160009 535922410-AddedOnRampEdge"/>
    </vehicle>
    <vehicle id="roi_trip_2" type="veh_passenger" depart="1.20">
        <route edges="428326182 314066418-AddedOnRampEdge 314066418 535572607 83002986 535574528 893289558 462693003 238875365 1168109380 535922409"/>
    </vehicle>
    <vehicle id="roi_trip_3" type="veh_passenger" depart="1.80">
        <route edges="428326182 314066418-AddedOnRampEdge 314066418 535572607 83002986 535574528 893289558 462693003 238875365 1168109380 535922409 431981408#0 431981408#1 431981408#2 238875364#0 238875364#1 238875364#2 24683519#0 24683519#1 431994306 431775779 431775778 431827300#0 24683535#3 24683536 948224714 -948224715 -948224713 -24791336#1 -24791336#0 -24791335#5 -24791335#4 -24791335#3 -24791335#2 -24791335#1 -24791335#0 424685850#1 535566666#1 314066421 314066421-AddedOffRampEdge 24160007#0 1205679702#0 1205679702#1 -1205679702#1"/>
    </vehicle>
    <vehicle id="roi_trip_4" type="veh_passenger" depart="2.40">
        <route edges="431981408#0 431981408#1 431981408#2 238875364#0 238875364#1 238875364#2 24683519#0 24683519#1 431994306 -80477039#1 -80477039#0 -422425537#1 -422425537#0 24683514#0 24683514#1 431827297#0 431827297#1 431827297#2 431827297#3 314066417 895708421 431989326 24160009 535922410-AddedOnRampEdge 535922410 431981407"/>
    </vehicle>
    <vehicle id="roi_trip_5" type="veh_passenger" depart="3.00">
        <route edges="24160012#1 98246952 535554959#0 -854227939 -276636146#6 -276636146#5 534900635#0 534900635#1 -24683515#2 -24683515#1 -24683515#0 431827298 535569424 431827297#0 431827297#1 431827297#2 431827297#3 199885792 428326182"/>
    </vehicle>
    <vehicle id="roi_trip_6" type="veh_passenger" depart="3.60">
        <route edges="1168109380 535922409 431981408#0 431981408#1 431981408#2 238875364#0 238875364#1 238875364#2 24683519#0 24683519#1 431994306 -80477039#1 -80477039#0 -422425537#1 -422425537#0 24683514#0 24683514#1 431827297#0 431827297#1 431827297#2 431827297#3 199885792 428326182"/>
    </vehicle>
    <vehicle id="roi_trip_7" type="veh_passenger" depart="4.20">
        <route edges="24160007#0 24160007#1 24160007#2 431981408#1 431981408#2 238875364#0 238875364#1 238875364#2 24683519#0 24683519#1 431994306 -80477039#1 -80477039#0 -422425537#1 -422425537#0 24683514#0 24683514#1 431827297#0 431827297#1 431827297#2 431827297#3 314066417 895708421 431989326"/>
    </vehicle>
    <vehicle id="roi_trip_8" type="veh_passenger" depart="4.80">
        <route edges="1205679702#0 -1205679702#0 24160007#1 24160007#2 431981408#1 431981408#2 238875364#0 238875364#1 238875364#2 24683519#0 24683519#1 431994306 -80477039#1 -80477039#0 -422425537#1 -422425537#0 24683514#0 24683514#1 431827297#0 431827297#1 431827297#2 431827297#3 314066417 895708421 431989326 24160009 535922410-AddedOnRampEdge"/>
    </vehicle>
    <vehicle id="roi_trip_9" type="veh_passenger" depart="5.40">
        <route edges="428326182 314066418-AddedOnRampEdge 314066418 535572607 83002986 535574528 893289558 462693003 238875365 1168109380 535922409 431981408#0 431981408#1 431981408#2 238875364#0 238875364#1 238875364#2 24683519#0 24683519#1 431994306 431775779 431775778 431827300#0 24683535#3 24683536 948224714 -948224715 -948224713 -24791336#1 -24791336#0 -24791335#5 -24791335#4 -24791335#3 -24791335#2 -24791335#1 -24791335#0 424685850#1 535566666#1 314066421 314066421-AddedOffRampEdge 24160007#0"/>
    </vehicle>
    <vehicle id="roi_trip_10" type="veh_passenger" depart="6.00">
        <route edges="-1205679702#0 1205679702#0 1205679702#1"/>
    </vehicle>
    <vehicle id="roi_trip_11" type="veh_passenger" depart="6.60">
        <route edges="25042886 98246952 535554959#0 -854227939 -276636146#6 -276636146#5 534900635#0 534900635#1 -24683515#2 -24683515#1 -874437282 24683513 422425537#0 422425537#1 422425537#2 80477039#1 431775779 431775778 431827300#0 24683535#3 24683536 948224714 -948224715 -948224713 -24791336#1 -24791336#0 -24791335#5 -24791335#4 -24791335#3 -24791335#2 -24791335#1 -24791335#0 424685850#1 535566666#1 98246932"/>
    </vehicle>
    <vehicle id="roi_trip_12" type="veh_passenger" depart="7.20">
        <route edges="423997744 541024816 535566679#0 535566679#1 535566679#1-AddedOffRampEdge 314066420#1 314066420#2 25054142#0 25054142#1 -25054140 25054138#2 -25054139 854227946#3 854227946#4 -24405502#3 -24405502#2 -24405502#1 -24405502#0 893289558 462693003 238875365 1168109380"/>
    </vehicle>
    <vehicle id="roi_trip_13" type="veh_passenger" depart="7.80">
        <route edges="1205679702#0 -1205679702#0 24160007#1 24160007#2 431981408#1 431981408#2 238875364#0 238875364#1 238875364#2 24683519#0 24683519#1 431994306 -80477039#1 -80477039#0 -422425537#1 -422425537#0 24683514#0 24683514#1 431827297#0 431827297#1 431827297#2 431827297#3 314066417 895708421"/>
    </vehicle>
    <vehicle id="roi_trip_14" type="veh_passenger" depart="8.40">
        <route edges="-1205679702#1 -1205679702#0 24160007#1 24160007#2 431981408#1 431981408#2 238875364#0 238875364#1 238875364#2 24683519#0 24683519#1 431994306 -80477039#1 -80477039#0 -422425537#1 -422425537#0 24683514#0 24683514#1 431827297#0 431827297#1 431827297#2 431827297#3 199885792 428326182 314066418-AddedOnRampEdge 314066418 535572607 83002986 535574528 893289558 462693003 238875365 1168109380"/>
    </vehicle>
    <vehicle id="roi_trip_15" type="veh_passenger" depart="9.00">
        <route edges="431989326 24160009 535922410-AddedOnRampEdge 535922410 24160011 535922409 431981408#0 431981408#1 431981408#2 238875364#0 238875364#1 238875364#2 24683519#0 24683519#1 431994306 -80477039#1 -80477039#0 -422425537#1 -422425537#0 24683514#0 24683514#1 431827297#0 431827297#1 431827297#2 431827297#3 314066417 895708421"/>
    </vehicle>
    <vehicle id="roi_trip_16" type="veh_passenger" depart="9.60">
        <route edges="24160007#0 1205679702#0 1205679702#1 -1205679702#1"/>
    </vehicle>
    <vehicle id="roi_trip_17" type="veh_passenger" depart="10.20">
        <route edges="423997744 541024816 535566679#0 535566679#1 535566679#1-AddedOffRampEdge 314066420#1 314066420#2 25054142#0 25054142#1 -25054140 25054138#2 -25054139 854227946#3 854227946#4 -24405502#3 -24405502#2 -24405502#1 -24405502#0 893289558 462693003 238875365 1168109380 535922409 431981408#0 431981408#1 431981408#2 238875364#0 238875364#1 238875364#2 24683519#0 24683519#1 431994306 431775779 431775778 431827300#0 24683535#3 24683536 948224714 -948224715 -948224713 -24791336#1 -24791336#0 -24791335#5 -24791335#4 -24791335#3 -24791335#2 -24791335#1 -24791335#0 424685850#1 535566666#1 314066421 314066421-AddedOffRampEdge 24160007#0 24160007#1 24160007#2"/>
    </vehicle>
    <vehicle id="roi_trip_18" type="veh_passenger" depart="10.80">
        <route edges="1163917760 25042886 98246952 535554959#0 -854227939 -854227942 -507058716 -25046412#6 199881960#0 1175651171 507058717#0 507058717#1 25042889#11 98246921 1168283956"/>
    </vehicle>
    <vehicle id="roi_trip_19" type="veh_passenger" depart="11.40">
        <route edges="1168273992-AddedOffRampEdge 314066419 314066418-AddedOnRampEdge 314066418 535572607 83002986 535574528 893289558 462693003 238875365 1168109380 535922409 431981408#0 431981408#1 431981408#2 238875364#0 238875364#1 238875364#2 24683519#0 24683519#1 431994306 431775779 431775778 431827300#0 24683535#3 24683536 948224714 -948224715 -948224713 -24791336#1 -24791336#0 -24791335#5 -24791335#4 -24791335#3 -24791335#2 -24791335#1 -24791335#0 424685850#1 535566666#1 314066421 314066421-AddedOffRampEdge 24160007#0 1205679702#0 1205679702#1"/>
    </vehicle>
    <vehicle id="roi_trip_20" type="veh_passenger" depart="12.00">
        <route edges="-1205679702#1 -1205679702#0 24160007#1 24160007#2 431981408#1 431981408#2 238875364#0 238875364#1 238875364#2 24683519#0 24683519#1 431994306 -80477039#1 -80477039#0 -422425537#1 -422425537#0 24683514#0 24683514#1 431827297#0 431827297#1 431827297#2 431827297#3 314066417 895708421 431989326 24160009 535922410-AddedOnRampEdge 535922410 24160011 535922409 24160010 541024817 83002985 1163917760"/>
    </vehicle>
    <vehicle id="roi_trip_21" type="veh_passenger" depart="12.60">
        <route edges="1205679702#1 -1205679702#1 -1205679702#0 24160007#1 24160007#2 431981408#1 431981408#2 238875364#0 238875364#1 238875364#2 24683519#0 24683519#1 431994306 431775779 431775778 431827300#0 24683535#3 24683536 948224714 -948224715 -948224713 -24791336#1 -24791336#0 -24791335#5 -24791335#4 -24791335#3 -24791335#2 -24791335#1 -24791335#0 424685850#1 535566666#1 314066421 314066421-AddedOffRampEdge"/>
    </vehicle>
    <vehicle id="roi_trip_22" type="veh_passenger" depart="13.20">
        <route edges="423997744 541024816 535566679#0 535566679#1 535566679#1-AddedOffRampEdge 314066420#1 314066420#2 25054142#0 25054142#1 -25054140 25054138#2 -25054139 854227946#3 854227946#4 -24405502#3 -24405502#2 -24405502#1 -24405502#0 893289558 462693003 238875365 1168109380 535922409 431981408#0 431981408#1 431981408#2 238875364#0 238875364#1 238875364#2 24683519#0 24683519#1 431994306 -80477039#1 -80477039#0 -422425537#1 -422425537#0 24683514#0 24683514#1 431827297#0 431827297#1 431827297#2 431827297#3 314066417 895708421"/>
    </vehicle>
    <vehicle id="roi_trip_23" type="veh_passenger" depart="13.80">
        <route edges="25042886 98246952 535554959#0 -854227939 -276636146#6 -276636146#5 534900635#0 534900635#1 -24683515#2 -24683515#1 -874437282 24683513 422425537#0 422425537#1 422425537#2 80477039#1 431775779 431775778 431827300#0 24683535#3 24683536 948224714 -948224715 -948224713 -24791336#1 -24791336#0 -24791335#5 -24791335#4 -24791335#3 -24791335#2 -24791335#1 -24791335#0 424685850#1 535566666#1 314066421 314066421-AddedOffRampEdge 24160007#0 1205679702#0 -1205679702#0"/>
    </vehicle>
    <vehicle id="roi_trip_24" type="veh_passenger" depart="14.40">
        <route edges="24160009 535922410-AddedOnRampEdge 535922410"/>
    </vehicle>
    <vehicle id="roi_trip_25" type="veh_passenger" depart="15.00">
        <route edges="314066421-AddedOffRampEdge 24160020 541024817 83002985 1163917760 24160008 431989326 24160009 535922410-AddedOnRampEdge 535922410 24160011 535922409 24160010"/>
    </vehicle>
    <vehicle id="roi_trip_26" type="veh_passenger" depart="15.60">
        <route edges="423997744 541024816 535566679#0 535566679#1 535566679#1-AddedOffRampEdge 314066420#1 314066420#2 25054142#0 25054142#1 -25054140 25054138#2 -25054139 854227946#3 854227946#4 -24405502#3 -24405502#2 -24405502#1 -24405502#0 893289558 462693003 238875365 1168109380 535922409 24160010 541024817 83002985 1163917760 25042886"/>
    </vehicle>
    <vehicle id="roi_trip_27" type="veh_passenger" depart="16.20">
        <route edges="1205679702#1 -1205679702#1 -1205679702#0 24160007#1 24160007#2 431981408#1 431981408#2 238875364#0 238875364#1 238875364#2 24683519#0 24683519#1 431994306 -80477039#1 -80477039#0 -422425537#1 -422425537#0 24683514#0 24683514#1 431827297#0 431827297#1 431827297#2 431827297#3 314066417 24160012#0 24160012#1 98246952 535554959#0 -854227939 -854227942 -507058716 -25046412#6 199881960#0 1175651171 507058717#0 507058717#1 25042889#11 98246921 1168283956"/>
    </vehicle>
    <vehicle id="roi_trip_28" type="veh_passenger" depart="16.80">
        <route edges="1205679702#0 -1205679702#0 24160007#1 24160007#2 431981408#1 431981408#2 238875364#0 238875364#1 238875364#2 24683519#0 24683519#1 431994306 431775779 431775778 431827300#0 24683535#3 24683536 948224714 -948224715 -948224713 -24791336#1 -24791336#0 -24791335#5 -24791335#4 -24791335#3 -24791335#2 -24791335#1 -24791335#0 424685850#1 535566666#1 314066421 314066421-AddedOffRampEdge 24160007#0"/>
    </vehicle>
    <vehicle id="roi_trip_29" type="veh_passenger" depart="17.40">
        <route edges="98246932 535554959#0 -854227939 -276636146#6 -276636146#5 534900635#0 534900635#1 -24683515#2 -24683515#1 -874437282 24683513 422425537#0 422425537#1 422425537#2 80477039#1 431775779 431775778 431827300#0 24683535#3 24683536 948224714 -948224715 -948224713 -24791336#1 -24791336#0 -24791335#5 -24791335#4 -24791335#3 -24791335#2 -24791335#1 -24791335#0 424685850#1 535566666#1 314066421 314066421-AddedOffRampEdge 24160007#0 1205679702#0 -1205679702#0"/>
    </vehicle>
    <vehicle id="roi_trip_30" type="veh_passenger" depart="18.00">
        <route edges="-1205679702#1 -1205679702#0 24160007#1 24160007#2 431981408#1 431981408#2 238875364#0 238875364#1 238875364#2 24683519#0 24683519#1 431994306 -80477039#1 -80477039#0 -422425537#1 -422425537#0 24683514#0 24683514#1 431827297#0 431827297#1 431827297#2 431827297#3 199885792 428326182 314066418-AddedOnRampEdge 314066418 535572607 83002986 535574528 893289558 462693003 238875365 1168109380"/>
    </vehicle>
    <vehicle id="roi_trip_31" type="veh_passenger" depart="18.60">
        <route edges="428326182 314066418-AddedOnRampEdge 314066418 535572607 83002986 535574528 893289558 462693003 238875365 1168109380 535922409 24160010 541024817 83002985 1163917760 25042886 98246952 535554959#0 -854227939 -854227942 -507058716 -25046412#6 199881960#0 1175651171 507058717#0 507058717#1 25042889#11 423997744"/>
    </vehicle>
    <vehicle id="roi_trip_32" type="veh_passenger" depart="19.20">
        <route edges="428326182 314066418-AddedOnRampEdge 314066418 535572607 83002986 535574528 893289558 462693003 238875365 1168109380 535922409 431981408#0 431981408#1 431981408#2 238875364#0 238875364#1 238875364#2 24683519#0 24683519#1 431994306 431775779 431775778 431827300#0 24683535#3 24683536 948224714 -948224715 -948224713 -24791336#1 -24791336#0 -24791335#5 -24791335#4 -24791335#3 -24791335#2 -24791335#1 -24791335#0 424685850#1 535566666#1 314066421 314066421-AddedOffRampEdge 24160007#0 1205679702#0 1205679702#1"/>
    </vehicle>
    <vehicle id="roi_trip_33" type="veh_passenger" depart="19.80">
        <route edges="895708421 431989326 24160009 535922410-AddedOnRampEdge 535922410 24160011 535922409 431981408#0 431981408#1 431981408#2 238875364#0 238875364#1 238875364#2 24683519#0 24683519#1 431994306 431775779 431775778 431827300#0 24683535#3 24683536 948224714 -948224715 -948224713 -24791336#1 -24791336#0 -24791335#5 -24791335#4 -24791335#3 -24791335#2 -24791335#1 -24791335#0 424685850#1 535566666#1 314066421 314066421-AddedOffRampEdge"/>
    </vehicle>
    <vehicle id="roi_trip_34" type="veh_passenger" depart="20.40">
        <route edges="428326182 314066418-AddedOnRampEdge 314066418 535572607 83002986 535574528 893289558 462693003 238875365 1168109380 535922409 24160010 541024817 83002985 1163917760 25042886 98246952 535554959#0 -854227939 -854227942 -507058716 -25046412#6 199881960#0 1175651171 507058717#0 507058717#1 25042889#11 423997744"/>
    </vehicle>
    <vehicle id="roi_trip_35" type="veh_passenger" depart="21.00">
        <route edges="199885791 238875364#0 238875364#1 238875364#2 24683519#0 24683519#1 431994306 -80477039#1 -80477039#0 -422425537#1 -422425537#0 24683514#0 24683514#1 431827297#0 431827297#1 431827297#2 431827297#3 314066417 895708421"/>
    </vehicle>
    <vehicle id="roi_trip_36" type="veh_passenger" depart="21.60">
        <route edges="24160020 541024817 83002985 1163917760 24160008 431989326 1168273992 1168273992-AddedOffRampEdge"/>
    </vehicle>
    <vehicle id="roi_trip_37" type="veh_passenger" depart="22.20">
        <route edges="431981407 535910625#0 -24683612#2 24405520#1 24405520#2 -24405522#1 -24405522#0 1168126740 854227946#4 -24405502#3 -24405502#2 -24405502#1 -24405502#0 893289558 462693003 238875365 1168109380 535922409 431981408#0 431981408#1 431981408#2 238875364#0 238875364#1 238875364#2 24683519#0 24683519#1 431994306 431775779 431775778 431827300#0 24683535#3 24683536 948224714 -948224715 -948224713 -24791336#1 -24791336#0 -24791335#5 -24791335#4 -24791335#3 -24791335#2 -24791335#1 -24791335#0 424685850#1 535566666#1 314066421 314066421-AddedOffRampEdge 24160007#0 1205679702#0"/>
    </vehicle>
    <vehicle id="roi_trip_38" type="veh_passenger" depart="22.80">
        <route edges="199885792 428326182 314066418-AddedOnRampEdge 314066418 535572607 83002986 535574528 893289558 462693003 238875365 1168109380 535922409 24160010 541024817 83002985 1163917760"/>
    </vehicle>
    <vehicle id="roi_trip_39" type="veh_passenger" depart="23.40">
        <route edges="431981408#0 431981408#1 431981408#2 238875364#0 238875364#1 238875364#2 24683519#0 24683519#1 431994306 431775779 431775778 431827300#0 24683535#3 24683536 948224714 -948224715 -948224713 -24791336#1 -24791336#0 -24791335#5 -24791335#4 -24791335#3 -24791335#2 -24791335#1 -24791335#0 424685850#1 535566666#1 314066421 314066421-AddedOffRampEdge 24160007#0 1205679702#0 1205679702#1 -1205679702#1"/>
    </vehicle>
    <vehicle id="roi_trip_40" type="veh_passenger" depart="24.00">
        <route edges="24160010 541024817 83002985 1163917760 24160008 431989326 24160009"/>
    </vehicle>
    <vehicle id="roi_trip_41" type="veh_passenger" depart="24.60">
        <route edges="1163917760 25042886 98246952 535554959#0 -854227939 -276636146#6 -276636146#5 534900635#0 534900635#1 -24683515#2 -24683515#1 -24683515#0 431827298 535569424 431827297#0 431827297#1 431827297#2 431827297#3 314066417 895708421"/>
    </vehicle>
    <vehicle id="roi_trip_42" type="veh_passenger" depart="25.20">
        <route edges="-1205679702#0 24160007#1 24160007#2 431981408#1 431981408#2 238875364#0 238875364#1 238875364#2 24683519#0 24683519#1 431994306 431775779 431775778 431827300#0 24683535#3 24683536 948224714 -948224715 -948224713 -24791336#1 -24791336#0 -24791335#5 -24791335#4 -24791335#3 -24791335#2 -24791335#1 -24791335#0 424685850#1 535566666#1 314066421 314066421-AddedOffRampEdge"/>
    </vehicle>
    <vehicle id="roi_trip_43" type="veh_passenger" depart="25.80">
        <route edges="535922410 24160011 535922409 431981408#0 431981408#1 431981408#2 238875364#0 238875364#1 238875364#2 24683519#0 24683519#1 431994306 -80477039#1 -80477039#0 -422425537#1 -422425537#0 24683514#0 24683514#1 431827297#0 431827297#1 431827297#2 431827297#3 314066417 24160012#0 24160012#1"/>
    </vehicle>
    <vehicle id="roi_trip_44" type="veh_passenger" depart="26.40">
        <route edges="24160010 541024817 83002985 1163917760"/>
    </vehicle>
    <vehicle id="roi_trip_45" type="veh_passenger" depart="27.00">
        <route edges="428326182 314066418-AddedOnRampEdge 314066418 535572607 83002986 535574528 893289558 462693003 238875365 1168109380 535922409 431981408#0 431981408#1 431981408#2 238875364#0 238875364#1 238875364#2 24683519#0 24683519#1 431994306 431775779 431775778 431827300#0 24683535#3 24683536 948224714 -948224715 -948224713 -24791336#1 -24791336#0 -24791335#5 -24791335#4 -24791335#3 -24791335#2 -24791335#1 -24791335#0 424685850#1 535566666#1 314066421 314066421-AddedOffRampEdge 24160007#0 24160007#1 24160007#2"/>
    </vehicle>
    <vehicle id="roi_trip_46" type="veh_passenger" depart="27.60">
        <route edges="-1205679702#0 24160007#1 24160007#2 431981408#1 431981408#2 238875364#0 238875364#1 238875364#2 24683519#0 24683519#1 431994306 -80477039#1 -80477039#0 -422425537#1 -422425537#0 24683514#0 24683514#1 431827297#0 431827297#1 431827297#2 431827297#3 314066417 24160012#0 24160012#1"/>
    </vehicle>
    <vehicle id="roi_trip_47" type="veh_passenger" depart="28.20">
        <route edges="1168283956 535922410-AddedOnRampEdge 535922410 24160011 535922409 431981408#0 431981408#1 431981408#2 238875364#0 238875364#1 238875364#2 24683519#0 24683519#1 431994306 431775779 431775778 431827300#0 24683535#3 24683536 948224714 -948224715 -948224713 -24791336#1 -24791336#0 -24791335#5 -24791335#4 -24791335#3 -24791335#2 -24791335#1 -24791335#0 424685850#1 535566666#1 314066421 314066421-AddedOffRampEdge 24160007#0 1205679702#0 1205679702#1"/>
    </vehicle>
    <vehicle id="roi_trip_48" type="veh_passenger" depart="28.80">
        <route edges="24160012#1 98246952 535554959#0 -854227939 -276636146#6 -276636146#5 534900635#0 534900635#1 -24683515#2 -24683515#1 -24683515#0 431827298 535569424 431827297#0 431827297#1 431827297#2 431827297#3 199885792 428326182"/>
    </vehicle>
    <vehicle id="roi_trip_49" type="veh_passenger" depart="29.40">
        <route edges="431989326 24160009 535922410-AddedOnRampEdge 535922410 24160011 535922409 431981408#0"/>
    </vehicle>
    <vehicle id="roi_trip_50" type="veh_passenger" depart="30.00">
        <route edges="535922409 24160010 541024817 83002985 1163917760 24160008 431989326 24160009 535922410-AddedOnRampEdge 535922410 24160011"/>
    </vehicle>
    <vehicle id="roi_trip_51" type="veh_passenger" depart="30.60">
        <route edges="199885792 428326182 314066418-AddedOnRampEdge 314066418 535572607 83002986 535574528 893289558 462693003 238875365 1168109380 535922409 24160010 541024817 83002985 1163917760 24160008 431989326"/>
    </vehicle>
    <vehicle id="roi_trip_52" type="veh_passenger" depart="31.20">
        <route edges="1205679702#0 -1205679702#0 24160007#1 24160007#2 431981408#1 431981408#2 238875364#0 238875364#1 238875364#2 24683519#0 24683519#1 431994306 431775779 431775778 431827300#0 24683535#3 24683536 948224714 -948224715 -948224713 -24791336#1 -24791336#0 -24791335#5 -24791335#4 -24791335#3 -24791335#2 -24791335#1 -24791335#0 424685850#1 535566666#1 314066421 314066421-AddedOffRampEdge 24160007#0"/>
    </vehicle>
    <vehicle id="roi_trip_53" type="veh_passenger" depart="31.80">
        <route edges="314066421-AddedOffRampEdge 24160007#0"/>
    </vehicle>
    <vehicle id="roi_trip_54" type="veh_passenger" depart="32.40">
        <route edges="24160010 541024817 83002985 1163917760 24160008 431989326 24160009 535922410-AddedOnRampEdge 535922410"/>
    </vehicle>
    <vehicle id="roi_trip_55" type="veh_passenger" depart="33.00">
        <route edges="24160011 535922409 431981408#0 431981408#1 431981408#2 238875364#0 238875364#1 238875364#2 24683519#0 24683519#1 431994306 431775779 431775778 431827300#0 24683535#3 24683536 948224714 -948224715 -948224713 -24791336#1 -24791336#0 -24791335#5 -24791335#4 -24791335#3 -24791335#2 -24791335#1 -24791335#0 424685850#1 535566666#1 314066421 314066421-AddedOffRampEdge 24160007#0"/>
    </vehicle>
    <vehicle id="roi_trip_56" type="veh_passenger" depart="33.60">
        <route edges="24160009 535922410-AddedOnRampEdge 535922410 24160011 535922409 431981408#0 431981408#1 431981408#2 238875364#0 238875364#1 238875364#2 24683519#0 24683519#1 431994306 431775779 431775778 431827300#0 24683535#3 24683536 948224714 -948224715 -948224713 -24791336#1 -24791336#0 -24791335#5 -24791335#4 -24791335#3 -24791335#2 -24791335#1 -24791335#0 424685850#1 535566666#1 314066421 314066421-AddedOffRampEdge 24160007#0 1205679702#0"/>
    </vehicle>
    <vehicle id="roi_trip_57" type="veh_passenger" depart="34.20">
        <route edges="1205679702#0 -1205679702#0 24160007#1 24160007#2 431981408#1 431981408#2 238875364#0 238875364#1 238875364#2 24683519#0 24683519#1 431994306 -80477039#1 -80477039#0 -422425537#1 -422425537#0 24683514#0 24683514#1 431827297#0 431827297#1 431827297#2 431827297#3 314066417 895708421 431989326 24160009 535922410-AddedOnRampEdge 535922410 24160011 535922409 24160010"/>
    </vehicle>
    <vehicle id="roi_trip_58" type="veh_passenger" depart="34.80">
        <route edges="1168283956 535922410-AddedOnRampEdge 535922410 24160011 535922409 24160010 541024817 83002985 1163917760 24160008 431989326"/>
    </vehicle>
    <vehicle id="roi_trip_59" type="veh_passenger" depart="35.40">
        <route edges="24160008 431989326 24160009 535922410-AddedOnRampEdge 535922410 24160011 535922409 431981408#0 431981408#1 431981408#2 238875364#0 238875364#1 238875364#2 24683519#0 24683519#1 431994306 -80477039#1 -80477039#0 -422425537#1 -422425537#0 24683514#0 24683514#1 431827297#0 431827297#1 431827297#2 431827297#3 314066417 24160012#0 24160012#1"/>
    </vehicle>
    <vehicle id="roi_trip_60" type="veh_passenger" depart="36.00">
        <route edges="535922410-AddedOnRampEdge 535922410 431981407 535910625#0 -24683612#2 24405520#1 24405520#2 -24405522#1 -24405522#0 1168126740 854227946#4 -24405502#3 -24405502#2 -24405502#1 -24405502#0 893289558 462693003 238875365 1168109380"/>
    </vehicle>
    <vehicle id="roi_trip_61" type="veh_passenger" depart="36.60">
        <route edges="1163917760 24160008 431989326 24160009 535922410-AddedOnRampEdge 535922410 24160011"/>
    </vehicle>
    <vehicle id="roi_trip_62" type="veh_passenger" depart="37.20">
        <route edges="199885792 428326182 314066418-AddedOnRampEdge 314066418 535572607 83002986 535574528 893289558 462693003 238875365 1168109380 535922409 24160010 541024817 83002985 1163917760 24160008 431989326 24160009 535922410-AddedOnRampEdge"/>
    </vehicle>
    <vehicle id="roi_trip_63" type="veh_passenger" depart="37.80">
        <route edges="199885791 238875364#0 238875364#1 238875364#2 24683519#0 24683519#1 431994306 -80477039#1 -80477039#0 -422425537#1 -422425537#0 24683514#0 24683514#1 431827297#0 431827297#1 431827297#2 431827297#3 314066417 895708421 431989326 24160009"/>
    </vehicle>
    <vehicle id="roi_trip_64" type="veh_passenger" depart="38.40">
        <route edges="1168109380 535922409 431981408#0 431981408#1 431981408#2 238875364#0 238875364#1 238875364#2 24683519#0 24683519#1 431994306 431775779 431775778 431827300#0 24683535#3 24683536 948224714 -948224715 -948224713 -24791336#1 -24791336#0 -24791335#5 -24791335#4 -24791335#3 -24791335#2 -24791335#1 -24791335#0 424685850#1 535566666#1 314066421 314066421-AddedOffRampEdge"/>
    </vehicle>
    <vehicle id="roi_trip_65" type="veh_passenger" depart="39.00">
        <route edges="24160020 541024817 83002985 1163917760 24160008 431989326 24160009 535922410-AddedOnRampEdge 535922410 24160011 535922409 431981408#0 431981408#1 431981408#2 238875364#0 238875364#1 238875364#2 24683519#0 24683519#1 431994306 431775779 431775778 431827300#0 24683535#3 24683536 948224714 -948224715 -948224713 -24791336#1 -24791336#0 -24791335#5 -24791335#4 -24791335#3 -24791335#2 -24791335#1 -24791335#0 424685850#1 535566666#1 314066421 314066421-AddedOffRampEdge"/>
    </vehicle>
    <vehicle id="roi_trip_66" type="veh_passenger" depart="39.60">
        <route edges="24160020 541024817 83002985 1163917760 24160008 431989326 24160009 535922410-AddedOnRampEdge 535922410 24160011 535922409"/>
    </vehicle>
    <vehicle id="roi_trip_67" type="veh_passenger" depart="40.20">
        <route edges="535922410 24160011 535922409"/>
    </vehicle>
    <vehicle id="roi_trip_68" type="veh_passenger" depart="40.80">
        <route edges="24160009 535922410-AddedOnRampEdge 535922410 24160011 535922409 431981408#0 431981408#1 431981408#2 238875364#0 238875364#1 238875364#2 24683519#0 24683519#1 431994306 431775779 431775778 431827300#0 24683535#3 24683536 948224714 -948224715 -948224713 -24791336#1 -24791336#0 -24791335#5 -24791335#4 -24791335#3 -24791335#2 -24791335#1 -24791335#0 424685850#1 535566666#1 314066421 314066421-AddedOffRampEdge 24160020"/>
    </vehicle>
    <vehicle id="roi_trip_69" type="veh_passenger" depart="41.40">
        <route edges="431981408#0 431981408#1 431981408#2 238875364#0 238875364#1 238875364#2 24683519#0 24683519#1 431994306 -80477039#1 -80477039#0 -422425537#1 -422425537#0 24683514#0 24683514#1 431827297#0 431827297#1 431827297#2 431827297#3 314066417 24160012#0 24160012#1"/>
    </vehicle>
    <vehicle id="roi_trip_70" type="veh_passenger" depart="42.00">
        <route edges="98246932 535554959#0 -854227939 -276636146#6 -276636146#5 534900635#0 534900635#1 -24683515#2 -24683515#1 -24683515#0 431827298 535569424 431827297#0 431827297#1 431827297#2 431827297#3 199885792"/>
    </vehicle>
    <vehicle id="roi_trip_71" type="veh_passenger" depart="42.60">
        <route edges="535922410 24160011 535922409 431981408#0 431981408#1 431981408#2 238875364#0 238875364#1 238875364#2 24683519#0 24683519#1 431994306 431775779 431775778 431827300#0 24683535#3 24683536 948224714 -948224715 -948224713 -24791336#1 -24791336#0 -24791335#5 -24791335#4 -24791335#3 -24791335#2 -24791335#1 -24791335#0 424685850#1 535566666#1 314066421 314066421-AddedOffRampEdge 24160007#0"/>
    </vehicle>
    <vehicle id="roi_trip_72" type="veh_passenger" depart="43.20">
        <route edges="535922410-AddedOnRampEdge 535922410 24160011 535922409 24160010 541024817 83002985 1163917760 24160008 431989326 1168273992 1168273992-AddedOffRampEdge"/>
    </vehicle>
    <vehicle id="roi_trip_73" type="veh_passenger" depart="43.80">