<?xml version='1.0' encoding='UTF-8'?>
<trips><trip id="roi_trip_0" type="veh_passenger" depart="0.0" from="25042886" to="24160009" /><trip id="roi_trip_1" type="veh_passenger" depart="36.0" from="24160010" to="535922410-AddedOnRampEdge" /><trip id="roi_trip_2" type="veh_passenger" depart="72.0" from="431981408#0" to="535922410" /><trip id="roi_trip_3" type="veh_passenger" depart="108.0" from="314066421-AddedOffRampEdge" to="24160007#1" /><trip id="roi_trip_4" type="veh_passenger" depart="144.0" from="423997744" to="1168109380" /><trip id="roi_trip_5" type="veh_passenger" depart="180.0" from="24160012#1" to="535922409" /><trip id="roi_trip_6" type="veh_passenger" depart="216.0" from="1168109380" to="24160007#2" /><trip id="roi_trip_7" type="veh_passenger" depart="252.0" from="428326182" to="535922409" /><trip id="roi_trip_8" type="veh_passenger" depart="288.0" from="1163917760" to="1168273992-AddedOffRampEdge" /><trip id="roi_trip_9" type="veh_passenger" depart="324.0" from="24160009" to="535922410-AddedOnRampEdge" /><trip id="roi_trip_10" type="veh_passenger" depart="360.0" from="24160012#1" to="199885791" /><trip id="roi_trip_11" type="veh_passenger" depart="396.0" from="25042886" to="431989326" /><trip id="roi_trip_12" type="veh_passenger" depart="432.0" from="1168273992-AddedOffRampEdge" to="1168109380" /><trip id="roi_trip_13" type="veh_passenger" depart="468.0" from="1168273992-AddedOffRampEdge" to="1205679702#1" /><trip id="roi_trip_14" type="veh_passenger" depart="504.0" from="24160007#2" to="24160007#1" /><trip id="roi_trip_15" type="veh_passenger" depart="540.0" from="1168109380" to="535922410" /><trip id="roi_trip_16" type="veh_passenger" depart="576.0" from="431981407" to="24160012#1" /><trip id="roi_trip_17" type="veh_passenger" depart="612.0" from="431989326" to="1163917760" /><trip id="roi_trip_18" type="veh_passenger" depart="648.0" from="535922409" to="535922410" /><trip id="roi_trip_19" type="veh_passenger" depart="684.0" from="-1205679702#1" to="314066421-AddedOffRampEdge" /><trip id="roi_trip_20" type="veh_passenger" depart="720.0" from="1168109380" to="24160011" /><trip id="roi_trip_21" type="veh_passenger" depart="756.0" from="1163917760" to="423997744" /><trip id="roi_trip_22" type="veh_passenger" depart="792.0" from="24160007#2" to="-1205679702#0" /><trip id="roi_trip_23" type="veh_passenger" depart="828.0" from="314066421-AddedOffRampEdge" to="1205679702#0" /><trip id="roi_trip_24" type="veh_passenger" depart="864.0" from="1205679702#0" to="1168283956" /><trip id="roi_trip_25" type="veh_passenger" depart="900.0" from="24160007#2" to="199885792" /><trip id="roi_trip_26" type="veh_passenger" depart="936.0" from="431981408#0" to="535922409" /><trip id="roi_trip_27" type="veh_passenger" depart="972.0" from="24160008" to="1205679702#1" /><trip id="roi_trip_28" type="veh_passenger" depart="1008.0" from="1168283956" to="431981408#0" /><trip id="roi_trip_29" type="veh_passenger" depart="1044.0" from="1205679702#1" to="-1205679702#0" /><trip id="roi_trip_30" type="veh_passenger" depart="1080.0" from="535922409" to="-1205679702#0" /><trip id="roi_trip_31" type="veh_passenger" depart="1116.0" from="98246932" to="24160009" /><trip id="roi_trip_32" type="veh_passenger" depart="1152.0" from="-1205679702#0" to="24160009" /><trip id="roi_trip_33" type="veh_passenger" depart="1188.0" from="24160009" to="24160020" /><trip id="roi_trip_34" type="veh_passenger" depart="1224.0" from="24160007#2" to="24160020" /><trip id="roi_trip_35" type="veh_passenger" depart="1260.0" from="535922410" to="314066421-AddedOffRampEdge" /><trip id="roi_trip_36" type="veh_passenger" depart="1296.0" from="535922410" to="314066421-AddedOffRampEdge" /><trip id="roi_trip_37" type="veh_passenger" depart="1332.0" from="24160007#2" to="24160007#0" /><trip id="roi_trip_38" type="veh_passenger" depart="1368.0" from="423997744" to="535922409" /><trip id="roi_trip_39" type="veh_passenger" depart="1404.0" from="895708421" to="1168273992-AddedOffRampEdge" /><trip id="roi_trip_40" type="veh_passenger" depart="1440.0" from="314066421-AddedOffRampEdge" to="199885792" /><trip id="roi_trip_41" type="veh_passenger" depart="1476.0" from="98246932" to="431989326" /><trip id="roi_trip_42" type="veh_passenger" depart="1512.0" from="535922410" to="428326182" /><trip id="roi_trip_43" type="veh_passenger" depart="1548.0" from="535922410" to="199885792" /><trip id="roi_trip_44" type="veh_passenger" depart="1584.0" from="535922409" to="428326182" /><trip id="roi_trip_45" type="veh_passenger" depart="1620.0" from="24160008" to="24160007#1" /><trip id="roi_trip_46" type="veh_passenger" depart="1656.0" from="535922409" to="895708421" /><trip id="roi_trip_47" type="veh_passenger" depart="1692.0" from="431981407" to="1168283956" /><trip id="roi_trip_48" type="veh_passenger" depart="1728.0" from="431981407" to="24160020" /><trip id="roi_trip_49" type="veh_passenger" depart="1764.0" from="535922410" to="24160012#1" /><trip id="roi_trip_50" type="veh_passenger" depart="1800.0" from="535922409" to="1168109380" /><trip id="roi_trip_51" type="veh_passenger" depart="1836.0" from="1205679702#0" to="535922409" /><trip id="roi_trip_52" type="veh_passenger" depart="1872.0" from="431989326" to="24160009" /><trip id="roi_trip_53" type="veh_passenger" depart="1908.0" from="431981408#0" to="1168283956" /><trip id="roi_trip_54" type="veh_passenger" depart="1944.0" from="-1205679702#1" to="24160020" /><trip id="roi_trip_55" type="veh_passenger" depart="1980.0" from="535922410" to="535922409" /><trip id="roi_trip_56" type="veh_passenger" depart="2016.0" from="25042886" to="1168273992-AddedOffRampEdge" /><trip id="roi_trip_57" type="veh_passenger" depart="2052.0" from="1168283956" to="24160011" /><trip id="roi_trip_58" type="veh_passenger" depart="2088.0" from="1163917760" to="24160020" /><trip id="roi_trip_59" type="veh_passenger" depart="2124.0" from="314066421-AddedOffRampEdge" to="24160011" /><trip id="roi_trip_60" type="veh_passenger" depart="2160.0" from="1205679702#0" to="24160020" /><trip id="roi_trip_61" type="veh_passenger" depart="2196.0" from="-1205679702#0" to="24160010" /><trip id="roi_trip_62" type="veh_passenger" depart="2232.0" from="431989326" to="25042886" /><trip id="roi_trip_63" type="veh_passenger" depart="2268.0" from="431981408#0" to="-1205679702#1" /><trip id="roi_trip_64" type="veh_passenger" depart="2304.0" from="1205679702#1" to="1205679702#0" /><trip id="roi_trip_65" type="veh_passenger" depart="2340.0" from="24160007#2" to="535922410" /><trip id="roi_trip_66" type="veh_passenger" depart="2376.0" from="423997744" to="1168109380" /><trip id="roi_trip_67" type="veh_passenger" depart="2412.0" from="423997744" to="895708421" /><trip id="roi_trip_68" type="veh_passenger" depart="2448.0" from="1168283956" to="199885792" /><trip id="roi_trip_69" type="veh_passenger" depart="2484.0" from="1168283956" to="199885791" /><trip id="roi_trip_70" type="veh_passenger" depart="2520.0" from="24160008" to="428326182" /><trip id="roi_trip_71" type="veh_passenger" depart="2556.0" from="199885791" to="24160012#1" /><trip id="roi_trip_72" type="veh_passenger" depart="2592.0" from="431981408#0" to="24160020" /><trip id="roi_trip_73" type="veh_passenger" depart="2628.0" from="24160009" to="431981407" /><trip id="roi_trip_74" type="veh_passenger" depart="2664.0" from="24160012#1" to="535922409" /><trip id="roi_trip_75" type="veh_passenger" depart="2700.0" from="1163917760" to="24160007#0" /><trip id="roi_trip_76" type="veh_passenger" depart="2736.0" from="535922409" to="1168109380" /><trip id="roi_trip_77" type="veh_passenger" depart="2772.0" from="199885791" to="25042886" /><trip id="roi_trip_78" type="veh_passenger" depart="2808.0" from="423997744" to="25042886" /><trip id="roi_trip_79" type="veh_passenger" depart="2844.0" from="-1205679702#0" to="24160008" /><trip id="roi_trip_80" type="veh_passenger" depart="2880.0" from="98246932" to="24160007#1" /><trip id="roi_trip_81" type="veh_passenger" depart="2916.0" from="24160007#1" to="24160007#0" /><trip id="roi_trip_82" type="veh_passenger" depart="2952.0" from="535922409" to="428326182" /><trip id="roi_trip_83" type="veh_passenger" depart="2988.0" from="24160020" to="1163917760" /><trip id="roi_trip_84" type="veh_passenger" depart="3024.0" from="1168109380" to="24160009" /><trip id="roi_trip_85" type="veh_passenger" depart="3060.0" from="1163917760" to="24160009" /><trip id="roi_trip_86" type="veh_passenger" depart="3096.0" from="1205679702#0" to="98246932" /><trip id="roi_trip_87" type="veh_passenger" depart="3132.0" from="423997744" to="1168283956" /><trip id="roi_trip_88" type="veh_passenger" depart="3168.0" from="24160007#2" to="24160009" /><trip id="roi_trip_89" type="veh_passenger" depart="3204.0" from="24160010" to="535922410-AddedOnRampEdge" /><trip id="roi_trip_90" type="veh_passenger" depart="3240.0" from="-1205679702#1" to="-1205679702#0" /><trip id="roi_trip_91" type="veh_passenger" depart="3276.0" from="314066421-AddedOffRampEdge" to="24160007#2" /><trip id="roi_trip_92" type="veh_passenger" depart="3312.0" from="199885791" to="535922410" /><trip id="roi_trip_93" type="veh_passenger" depart="3348.0" from="199885792" to="1163917760" /><trip id="roi_trip_94" type="veh_passenger" depart="3384.0" from="423997744" to="98246932" /><trip id="roi_trip_95" type="veh_passenger" depart="3420.0" from="1205679702#0" to="1205679702#1" /><trip id="roi_trip_96" type="veh_passenger" depart="3456.0" from="24160007#0" to="535922409" /><trip id="roi_trip_97" type="veh_passenger" depart="3492.0" from="1163917760" to="-1205679702#1" /><trip id="roi_trip_98" type="veh_passenger" depart="3528.0" from="1205679702#1" to="24160007#2" /><trip id="roi_trip_99" type="veh_passenger" depart="3564.0" from="1168283956" to="535922410" /></trips>