<routes xmlns:xsi="http://www.w3.org/2001/XMLSchema-instance" xsi:noNamespaceSchemaLocation="http://sumo.dlr.de/xsd/routes_file.xsd">
    <vehicle id="type2_403" depart="0.74" departLane="best" departPos="random" departSpeed="max">
        <route edges="-24405489#2 -24405489#1 -24405489#0 -107938350#4 -107938350#3 -107938350#2 -107938350#1 -107938350#0 25042889#9 25042889#9-AddedOffRampEdge 25042889#10 25042889#11 98246921 24160013 -660590671 -854227943#0 854227941 854227939 535554959#1 98246944#1 98246944#2 98246944#3 98246944#4 98246944#5 98246944#6 98246944#7 98246944#8 98246944#9 98246944#10 98246944#11 -432248097#1 -432248097#0 -626957566 -24735618#2 -24735618#1 24735607#3 626957570#0 626957570#1 -376539192 376539192 -626957570#1" />
    </vehicle>
    <vehicle id="type2_404" depart="0.99" departLane="best" departPos="random" departSpeed="max">
        <route edges="422730660#1 535572607 83002986 535574528 24405502#0 24405502#1 24405502#2 24405502#3 -854227946#4 -854227946#3 -854227946#2 -854227946#1 -854227946#0 179181038#0 179181038#1-AddedOnRampEdge 179181038#1 179181038#2 179181038#3 1094268114#0 1094268114#1 -999609877 1094268113 25054145#0 25054145#1 854227948 27347564#0 27347564#1 24783924#2 24783924#3 24783924#4 24783924#5 24783924#6 -534900637#4 1168541557" />
    </vehicle>
    <vehicle id="type2_405" depart="1.23" departLane="best" departPos="random" departSpeed="max">
        <route edges="-1168541555#2 -1168541555#1 -1168541555#0 -24783924#10 -24783924#9 -24783924#8 -24783924#7 -24783924#6 -24783924#5 -24783924#4 -24783924#3 -24783924#2 -27347564#1 -27347564#0 -854227948 457320396#0 457320396#1 457320396#2 457320396#3 457320396#4 457320396#5 457320396#6 652088615#0 652088615#1 652088615#1-AddedOffRampEdge 652044149 25054595#2 25054595#3 25054595#4 25054595#5 25054595#6 25054595#7 25054602#1 25054602#2 432770910#0 432770910#1 -376545741#1 432770525" />
    </vehicle>
    <vehicle id="type2_406" depart="1.48" departLane="best" departPos="random" departSpeed="max">
        <route edges="-24405492#0 1168287296#0 1168287296#1 1168287296#2 1168287296#3 24405490#0 -107938350#2 -107938350#1 -107938350#0 25042889#9 25042889#9-AddedOffRampEdge 25042889#10 25042889#11 98246921 24160013 -660590671 -854227943#0 854227941 854227939 535554959#1 98246944#1 98246944#2 98246944#3 98246944#4 98246944#5 98246944#6 98246944#7 98246944#8 98246944#9 98246944#10 98246944#11 -432248097#1 -432248097#0 -626957566 -24735618#2 -24735618#1 -24735618#0 -626957569#1 24735611#0 24735611#1 24735611#2" />
    </vehicle>
    <vehicle id="type2_407" depart="1.72" departLane="best" departPos="random" departSpeed="max">
        <route edges="24683534#0 -431827299#0 -431775778 -431775779 -80477039#1 -80477039#0 -422425537#1 -422425537#0 -24683513 874437282 24683515#1 24683515#2 24683518 -534900635#0 -276636146#4 -276636146#3 -276636146#2 1201612996" />
    </vehicle>
    <vehicle id="type2_408" depart="1.97" departLane="best" departPos="random" departSpeed="max">
        <route edges="894591131 -1080631195#0 1080631196 -376543465#0 -27782156 1168311253#2 1168311253#3 376543461 -98231048#0 -897097401#1 -897097401#0 -897097402#1 -897097402#0 -25042905#2 -25042905#1 -25042905#0 35631490 -25043183#1 -25043183#0 -421121876#1 421121863#0 421121863#1 421121863#2 25043180#1 -432768292#6 -432768292#5 -432768292#4 -432768292#3 -432768292#2 -432768292#1 -432768292#0 -432768291#5 -432768291#4 -25044936" />
    </vehicle>
    <vehicle id="type2_4010" depart="2.46" departLane="best" departPos="random" departSpeed="max">
        <route edges="894591173 -894591173 -25054870#2 -25054869 25045239#2 25045239#3 229472855#0 229472855#1 429529117#0 229472854 432770522 431981404#0 431981404#1 -25043183#1 -25043183#0 -421121876#1 421121863#0 421121863#1 421121863#2 25043180#1 -432768292#6 -432768292#5 -432768292#4 -432768292#3 -432768292#2 -432768292#1 -432768292#0 -432768291#5 -432768291#4 -432768291#3 -432768291#2 -25035602" />
    </vehicle>
    <vehicle id="type2_4012" depart="2.96" departLane="best" departPos="random" departSpeed="max">
        <route edges="429690524#1 432248099#0 432248099#1 432248099#2 432248099#3 432248099#4 432248099#5 432248099#6 432248099#7 432762971 -432248098 -626957569#1 -626957569#0 -24735606 -432248096 -1168287299#1 -1168287299#0 -626957571#1 -626957571#0 -24699030#0 24699025#0 24699025#1 24699025#2 -24699025#2" />
    </vehicle>
    <vehicle id="type2_4013" depart="3.20" departLane="best" departPos="random" departSpeed="max">
        <route edges="421121961 -25043180#1 -25043180#0 -421121863#1 -421121863#0 421121876#1 25043183#0 25043183#1 -35631490 25042905#0 25042905#1 25042905#2 897097402#0 25042908#0 25042908#1 -25042915#2 25042918#0 25042918#1 432777386#0 25042922#2 376543469#1" />
    </vehicle>
    <vehicle id="type2_4017" depart="4.19" departLane="best" departPos="random" departSpeed="max">
        <route edges="31896236#0 -24791338#2 -24791338#1 24683537 -1205693234#1 -1205693234#0 -1094298143#0 -420905084 -24683536 -24683535#3 -431827300#0 -431775778 -431775779 -431994306 -431827302#1 -305589151#0 1201612997" />
    </vehicle>
    <vehicle id="type2_4018" depart="4.43" departLane="best" departPos="random" departSpeed="max">
        <route edges="98246944#3 98246944#4 98246944#5 98246944#6 98246944#7 98246944#8 98246944#9 98246944#10 98246944#11 98246944#12 98246944#13 98246944#13-AddedOffRampEdge 98246944#14 98246944#15 98246944#16 98246944#17 98246944#18 98246944#19 98246944#19-AddedOffRampEdge 535549123#0 535549123#1 535549123#2 65423591#1 895454005 25042890 97293743#0 97293743#1 35631491#0 35631491#1 35631490 -431981404#1 -431981404#0 -432770522 -429529116 -432770520#5 432770520#5" />
    </vehicle>
    <vehicle id="type2_4019" depart="4.68" departLane="best" departPos="random" departSpeed="max">
        <route edges="-24735604#1 -293256120#0 -24699017#1 25042882#0 -25042884 1168311254" />
    </vehicle>
    <vehicle id="type2_4024" depart="5.91" departLane="best" departPos="random" departSpeed="max">
        <route edges="-538972997#0 -35631490 -431981406 -35631491#0 -97293743#1 -24735617#1 -24735617#0 -432248098 -626957569#1 -626957569#0 -24735606 -432248096 -1168287299#1 -1168287299#0 -432248094 -276638494#1 -276638494#0 292747017#0 -24699032#0 24699025#9 24699026 -24699026" />
    </vehicle>
    <vehicle id="type2_4026" depart="6.40" departLane="best" departPos="random" departSpeed="max">
        <route edges="-25054221#0 -25054219#0 -24405516#1 -24405516#0 -25054228#1 -25054228#0 -25054216#0 24405514#1 24405514#2 422730660#1 535572607 535572605#0 599923153#0 599923153#1" />
    </vehicle>
    <vehicle id="type2_4027" depart="6.65" departLane="best" departPos="random" departSpeed="max">
        <route edges="-25044574#1 -25044574#0 25035451#4 376541646 376541644 97293743#0 97293743#1 35631491#0 35631491#1 25042905#0 25042905#1 25042905#2 897097402#0 897097402#1 897097401#0 376543462 750058067#1 750058067#2 25042899 199836127#1 -25042904 376543465#0 376543465#1 376543465#2 25042896#3 1168311253#0 199836131" />
    </vehicle>
    <vehicle id="type2_4028" depart="6.90" departLane="best" departPos="random" departSpeed="max">
        <route edges="1216978710 -1216978710 1216978709#0 1216978709#1 535566701#1 535574528 24405502#0 24405502#1 24405502#2 24405502#3 -854227946#4 -854227946#3 -854227946#2 -854227946#1 -854227946#0 179181038#0 179181038#1-AddedOnRampEdge 179181038#1 652088615#1 652088615#1-AddedOffRampEdge 652044149 25054595#2 25054595#3 25054595#4 25054595#5 25054595#6 25054595#7 25054602#1 25054602#2 25054587#0 25054587#1 25054587#2 432770524 432807560 432777381#0 432777381#1 432777381#2 229472854 432770522 431981404#0 25045236 97293752#1 25045235#0 25111486" />
    </vehicle>
    <vehicle id="type2_4030" depart="7.39" departLane="best" departPos="random" departSpeed="max">
        <route edges="-24683515#3 24683518 -534900635#0 276636146#5 276636146#6 -854227942 -507058716 -25046412#6 -25046412#5 999609883#0 999609883#1 -25046387 24405506#4 24405506#5 24405506#6 24405506#7 24405506#8 -376543466#2 -376543466#1 -376543466#0 -98231048#2 -98231048#1 -98231048#0 -897097401#1 -897097401#0" />
    </vehicle>
    <vehicle id="type2_4033" depart="8.13" departLane="best" departPos="random" departSpeed="max">
        <route edges="-24699032#1 292747017#1 1168799438#0 1168799438#1 276638492#0 276638492#1 276638492#2 276636146#0 276636146#1 276636146#2 276636146#3 276636146#4 276636146#5 276636146#6 -854227942 -507058716 -25046412#6 -25046412#5 999609883#0 999609883#1 -25046387 24405506#4 24405506#5 24405506#6 24405506#7 25043042 25042889#2 25042889#3 1168287297#0 1168287297#1 1168287297#2 -1168287297#2" />
    </vehicle>
    <vehicle id="type2_4034" depart="8.38" departLane="best" departPos="random" departSpeed="max">
        <route edges="-668298286 -25046811#1 -25046811#0 -25043046#2 -25043046#1 24405506#5 24405506#6 24405506#7 24405506#8 -376543466#2 -376543466#1 -376543466#0 -98231048#2 -98231048#1 -98231048#0 -897097401#1 -897097401#0 -897097402#1 -897097402#0 -25042905#2 -25042905#1 -25042905#0 35631490 -431981404#1 -431981404#0 -432770522 -229472854 -432777381#2 -432777381#1 -432777381#0 -432807560 432807561" />
    </vehicle>
    <vehicle id="type2_4036" depart="8.87" departLane="best" departPos="random" departSpeed="max">
        <route edges="276638492#2 276636146#0 276636146#1 276636146#2 276636146#3 276636146#4 276636146#5 276636146#6 -854227942 -507058716 -25046412#6 -25046412#5 999609883#0 999609883#1 -25046387 24405506#4 24405506#5 24405506#6 24405506#7 25043042 25042889#2 25042889#3 1168287297#0 1168287297#1 1168287297#2 1168287297#3 -25046425" />
    </vehicle>
    <vehicle id="type2_4037" depart="9.11" departLane="best" departPos="random" departSpeed="max">
        <route edges="-24683538#1 -24683538#0 -24791338#1 24683537 -1205693234#1 -1205693234#0 -1094298143#0 -420905084 -24683536 -24683535#3 -431827300#0 -431775778 -431775779 -80477039#1 -80477039#0 -422425537#1 -422425537#0 -24683513 874437282 24683515#1 24683515#2 24683518 -534900635#0 -276636146#4 -276636146#3 -276636146#2 -276636146#1 -276636146#0 293255910#0 293255910#1 293255909#0 293255909#1 293255909#2 -24699039#1 -24699039#0 420905059 805508870#2-AddedOnRampEdge 805508870#2" />
    </vehicle>
    <vehicle id="type2_4038" depart="9.36" departLane="best" departPos="random" departSpeed="max">
        <route edges="24783924#3 -24783924#3 -24783924#2 -27347564#1 -27347564#0 -854227948 457320396#0 457320396#1 457320396#2 457320396#3 457320396#4 457320396#5 457320396#6 652088615#0 652088615#1 652088615#1-AddedOffRampEdge 652044149 25054595#2 25054595#3 25054595#4 25054595#5 25054595#6 25054595#7 25054602#1 25054602#2 25054587#0 25054587#1 25054587#2 432770524 432807560 432777381#0 432777381#1 432777381#2 229472854 432770522 431981404#0 431981404#1 -25043183#1 -25043183#0 25042891#0 -25044934#3 -25044934#2 -25044934#1 -25044934#0" />
    </vehicle>
    <vehicle id="type2_4039" depart="9.61" departLane="best" departPos="random" departSpeed="max">
        <route edges="-25054582#1 -229472853#1 -432777381#1 -432777381#0 -432807560 -432770524 -25054587#2 -25054587#1 -25054587#0 25054587#0" />
    </vehicle>
    <vehicle id="type2_4040" depart="9.85" departLane="best" departPos="random" departSpeed="max">
        <route edges="-1201838045 24699027#8 24699027#9 -107938377#3 -107938377#2 -107938377#1 -107938377#0 -293255910#1 -293255910#0 276636146#0 276636146#1 276636146#2 276636146#3 276636146#4 276636146#5 276636146#6 -854227942 854227943#0 854227943#1 1168801372 24405504#0 24405504#1 -24405507#4 24405512#0 -25046407#2 -25046407#1" />
    </vehicle>
    <vehicle id="type2_4044" depart="10.84" departLane="best" departPos="random" departSpeed="max">
        <route edges="-25035451#3 25035451#3 25035451#4 -25044568 -1168524081 -25043787 -432234379#1 -432234379#0 -24735615 24699029#0 24699029#1 24699029#2 24699029#3 24699030#0 24699030#1 24699030#2 292747017#0 292747017#1 1168799438#0 1168799438#1 276638492#0 276638492#1 276638492#2 276636146#0 276636146#1" />
    </vehicle>
    <vehicle id="type2_4045" depart="11.08" departLane="best" departPos="random" departSpeed="max">
        <route edges="25054220#0 25046819#1 -432777386#4 -432777386#3 -432777386#2 -432777386#1 -432777386#0 -25042918#1 25042920#2 25042920#3 -25042911#1 -25042911#0 98231048#2 376543466#0 376543466#1 376543466#2 -24405506#8 -24405506#7 -24405506#6 -24405506#5 25043046#1 25043046#2 25046811#0 25046811#1 668298286" />
    </vehicle>
    <vehicle id="type2_4046" depart="11.33" departLane="best" departPos="random" departSpeed="max">
        <route edges="-1168799438#0 24405494#0 24405494#1 98246944#10 98246944#11 98246944#12 98246944#13 98246944#13-AddedOffRampEdge 98246944#14 98246944#15 98246944#16 98246944#17 98246944#18 98246944#19 98246944#19-AddedOffRampEdge 535549123#0 535549123#1 25042894 1168311253#0 1168311253#1 1168311253#2 1168311253#3 376543461 98231048#1 25042911#0 25042911#1 -25042920#3 -25042920#2 -25042920#1 -25042920#0" />
    </vehicle>
    <vehicle id="type2_4047" depart="11.58" departLane="best" departPos="random" departSpeed="max">
        <route edges="376539196#0 376539196#1 376539196#2 376539196#3 24699025#3 24699025#4 24699025#5 24699025#6 24699025#7 24699025#8 24699025#9 24699026 24699027#7 24699027#8 1201838047 -24699045#5 -276602571 420905045#1 -420905045#1" />
    </vehicle>
    <vehicle id="type2_4048" depart="11.82" departLane="best" departPos="random" departSpeed="max">
        <route edges="258647767#0 652044148 179181038#1-AddedOnRampEdge 179181038#1 652088615#1 652088615#1-AddedOffRampEdge 652044149 25054595#2 25054595#3 25054595#4 25054595#5 25054595#6 25054595#7 199568036#0 199568036#1 25042919#0 25042919#1 376543469#2 25042920#1 25042920#2 25042920#3 -25042911#1 -25042911#0 98231048#2 376543466#0 376543466#1 -376543467" />
    </vehicle>
    <vehicle id="type2_4050" depart="12.32" departLane="best" departPos="random" departSpeed="max">
        <route edges="-431827300#1 24683535#3 24683536 948224714 -948224715 -948224713 -24791336#1 -24791336#0 24791335#6 1168279796 24791339#0 24791339#1 24791339#2 -637275760 -302965727#14 -302965727#13 -754427033 637275761#0 895216932#0 895216932#1 895216932#2 1380250678" />
    </vehicle>
    <vehicle id="type2_4051" depart="12.56" departLane="best" departPos="random" departSpeed="max">
        <route edges="-1168542193#1 1211392025 -1168542192#0 1168542194#2 1168542194#3 1205662256#1 1205662256#2 -24783924#12 -24783924#11 -24783924#10 -24783924#9 -24783924#8 -24783924#7 -24783924#6 -24783924#5 -24783924#4 -24783924#3 -24783924#2 -27347564#1 -27347564#0 -854227948 457320396#0 457320396#1 457320396#2 457320396#3 457320396#4 457320396#5 457320396#6 652088615#0 652088615#1 652088615#1-AddedOffRampEdge 652044149 25054595#2 25054595#3 25054595#4 25054595#5 25054595#6 25054595#7 25054602#1 25054602#2 25054587#0 25054587#1 25054587#2 432770524 432807560 432777381#0 432777381#1 432777381#2 229472854 432770522 431981404#0 431981404#1 -35631490 -431981406 -35631491#0 -97293743#1 -97293743#0 -25042890 -376541641 421121879" />
    </vehicle>
    <vehicle id="type2_4052" depart="12.81" departLane="best" departPos="random" departSpeed="max">
        <route edges="24683533#0 -431827299#1 -431827299#0 -431775778 -431775779 -80477039#1 -80477039#0 -422425537#1 -422425537#0 -24683513 874437282 24683515#1 24683515#2 24683518 -534900635#0 -276636146#4 -276636146#3 -276636146#2 -276636146#1 -276636146#0 293255910#0 -293255911#4 -293255911#3 -293255911#2 -293255911#1 -293255911#0" />
    </vehicle>
    <vehicle id="type2_4053" depart="13.06" departLane="best" departPos="random" departSpeed="max">
        <route edges="-668297273 24699025#7 24699025#8 24699032#0 292747017#1 24405494#0 24405494#1 98246944#10 98246944#11 -432248097#1 -432248097#0 -626957566 -24735618#2 -24735618#1 -24735618#0 432248098 24735617#0 24735608#0 24735608#1" />
    </vehicle>
    <vehicle id="type2_4055" depart="13.55" departLane="best" departPos="random" departSpeed="max">
        <route edges="535554959#1 -1201829325 1201829326#1 -854227939 -276636146#6 -276636146#5 534900635#0 534900635#1 -24683515#2 -24683515#1 -874437282 24683513 422425537#0 422425537#1 422425537#2 80477039#1 -431994306 -431827302#1 -431827302#0 -24683531 -431827307#1 -431827307#0 431827306#0 431827306#1 431827306#2 431827306#3 431827306#4 293255544#0 293255544#1 24683546#0" />
    </vehicle>
    <vehicle id="type2_4056" depart="13.79" departLane="best" departPos="random" departSpeed="max">
        <route edges="-1168544743#1 -1168544743#0 -334561591#6 -334561591#5 -334561591#4 -334561591#3 -334561591#2 -334561591#1 -334561591#0 -27347564#2 -27347564#1 -27347564#0 -854227948 457320396#0 457320396#1 457320396#2 457320396#3 457320396#4 457320396#5 457320396#6 652088615#0 652088615#1 652088615#1-AddedOffRampEdge 652044149 25054595#2 25054595#3 25054595#4 25054595#5 25054595#6 25054595#7 25054602#1 25054602#2 25054587#0 25054587#1 25054587#2 432770524 432807560 432777381#0 432777381#1 432777381#2 229472854 432770522 431981404#0 431981404#1 -25043183#1 -25043183#0 -421121876#1 421121863#0 25044928#0 -865425327" />
    </vehicle>
    <vehicle id="type2_4058" depart="14.29" departLane="best" departPos="random" departSpeed="max">
        <route edges="24159814#1 24159814#2 535554957 25042889#0 -24405506#9 -24405506#8 -24405506#7 -24405506#6 -24405506#5 -24405506#4 25046387 -999609883#1 -999609883#0 -24405511#3 24405511#3" />
    </vehicle>
    <vehicle id="type2_4060" depart="14.78" departLane="best" departPos="random" departSpeed="max">
        <route edges="-1094534966 1094534966 186530820#0 186530820#1 24683528 -293255544#3 -293255544#2 -293255544#1 -293255544#0 -431827306#4 -431827306#3 -431827306#2 -431827306#1 -431827306#0 431827307#0 431827307#1 24683531 431827302#0 431827302#1 431994306 431775779 431775778 431827300#0 24683535#3 24683536 948224714 -948224715 -948224713 -24791336#1 -24791336#0 24791335#6 1168279796 864273547" />
    </vehicle>
    <vehicle id="type2_4062" depart="15.27" departLane="best" departPos="random" departSpeed="max">
        <route edges="1207682864 -24783924#2 -27347564#1 -27347564#0 -854227948 457320396#0 457320396#1 457320396#2 457320396#3 457320396#4 457320396#5 457320396#6 652088615#0 652088615#1 652088615#1-AddedOffRampEdge 652044149 25054595#2 25054595#3 25054595#4 25054595#5 25054595#6 25054595#7 25054602#1 25054602#2 25054587#0 25054587#1 25054587#2 432770524 432807560 432777381#0 432777381#1 432777381#2 229472854 432770522 431981404#0 431981404#1 -25043183#1 -25043183#0 -421121876#1 -421121876#0 24159814#2 535554957 25042889#0 25042889#1 25042889#2 25042889#3 1168287297#0 1168287297#1 1168287297#2 1168287297#3 1168287297#4 1168287296#0 -1168287296#0" />
    </vehicle>
    <vehicle id="type2_4063" depart="15.52" departLane="best" departPos="random" departSpeed="max">
        <route edges="25046390#1 -25046400#0 25046393#1 24405503#2 24405507#2 24405507#3 24405512#0 24405512#1 24405514#0 25054216#0 25054216#1 25054228#1 24405516#0 24405516#1 25054219#0 25054219#1 25054219#2" />
    </vehicle>
    <vehicle id="type2_4064" depart="15.77" departLane="best" departPos="random" departSpeed="max">
        <route edges="-25054228#4 -25054228#3 -25054228#2 -25054228#1 -25054228#0 -25054216#0 -24405514#0 24405513 -24405507#5 -24405504#1 -24405504#0 -1168801372 25046409 -854227943#0 854227941 854227939 535554959#1 98246944#1 98246944#2 98246944#3 98246944#4 98246944#5 98246944#6 98246944#7 98246944#8 98246944#9 98246944#10 98246944#11 98246944#12 98246944#13 98246944#13-AddedOffRampEdge 98246944#14 429690526 -25042882#1 -25042882#0 24699017#1" />
    </vehicle>
    <vehicle id="type2_4069" depart="17.00" departLane="best" departPos="random" departSpeed="max">
        <route edges="25045240 229472855#0 229472855#1 429529117#0 229472854 432770522 431981404#0 431981404#1 -25043183#1 -25043183#0 25042891#0 25042891#1 25042891#2 25042891#3 -25111441#2 -25111439#0" />
    </vehicle>
    <vehicle id="type2_4070" depart="17.24" departLane="best" departPos="random" departSpeed="max">
        <route edges="24405506#1 24405506#2 24405506#3 24405506#4 24405506#5 24405506#6 24405506#7 24405506#8 -376543466#2 -376543466#1 -376543466#0 -98231048#2 -98231048#1 -98231048#0" />
    </vehicle>
    <vehicle id="type2_4071" depart="17.49" departLane="best" departPos="random" departSpeed="max">
        <route edges="1203849761 -1203849761 894591184#2 1080631196 -376543465#0 -27782156 1168311253#2 1168311253#3 376543461 98231048#1 98231048#2 376543466#0 376543466#1 376543466#2 -24405506#8 -24405506#7 -24405506#6 -24405506#5 -24405506#4 -24405506#3 -24405506#2 -24405506#1 -24405506#0 24405507#0 24405507#1 24405507#2 24405507#3 24405512#0 24405512#1 24405514#0 24405514#1 24405514#2 422730660#1 535572607 83002986 535574528 24405502#0 24405502#1 24405502#2 24405502#3 -854227946#4 -854227946#3 -854227946#2 -854227946#1 -854227946#0 179181038#0 179181038#1-AddedOnRampEdge 179181038#1 179181038#2 179181038#3 1094268114#0 1094268114#1 -999609877 1094268113 25054145#0 25054145#1 457320396#0" />
    </vehicle>
    <vehicle id="type2_4073" depart="17.98" departLane="best" departPos="random" departSpeed="max">
        <route edges="334560316 25054146#1 25054146#2 25054146#3 457320396#4 457320396#5 457320396#6 652088615#0 652088615#1 652088615#1-AddedOffRampEdge 652044149 25054595#2 25054595#3 25054595#4 -220666028#2 432775732#1 432775731#0 25054596#0 1203377496" />
    </vehicle>
    <vehicle id="type2_4075" depart="18.47" departLane="best" departPos="random" departSpeed="max">
        <route edges="24699032#0 292747017#1 24405494#0 24405494#1 98246944#10 98246944#11 98246944#12 98246944#13 98246944#13-AddedOffRampEdge 98246944#14 98246944#15 98246944#16 98246944#17 98246944#18 98246944#19 98246944#19-AddedOffRampEdge 535549123#0 535549123#1 535549123#2 65423591#1 895454005 25042890 97293743#0 97293743#1 35631491#0 35631491#1 35631490 -25043183#1 -25043183#0 25042891#0 25042891#1 25042891#2 25042891#3 -25111441#2 -25111441#1 -25111445#3 -25111445#2 -25111445#1 -25035600#0" />
    </vehicle>
    <vehicle id="type2_4076" depart="18.72" departLane="best" departPos="random" departSpeed="max">
        <route edges="-372239266#1 -372239266#0 -25046407#1 -25046407#0 -25046403#0 -24405507#0 24405506#0 24405506#1 24405506#2 -199881958 372239259#0 -25046817 25046815#1 -199881967#1" />
    </vehicle>
    <vehicle id="type2_4077" depart="18.97" departLane="best" departPos="random" departSpeed="max">
        <route edges="25054599 -432770531#2 -432770531#1 -432770531#0 -432770529#1 -432770529#0 -107938364 25054590#1 25054590#2 25054595#7 199568036#0 199568036#1 25042919#0 25042919#1 25042919#2 432777386#0 432777386#1 432777386#2 432777386#3 432777386#4 432777386#5 432777386#6 432777387 -25054219#1 -25054219#0 -24405516#1 -24405516#0 -25054228#1 -25054228#0 -25054216#0 -24405514#0 24405513 -24405507#5 -24405504#1 -24405504#0 -1168801372 25046409 660590671" />
    </vehicle>
    <vehicle id="type2_4080" depart="19.71" departLane="best" departPos="random" departSpeed="max">
        <route edges="25045240 229472855#0 229472855#1 429529117#0 229472854 432770522 431981404#0 431981404#1 -35631490 -431981406 -35631491#0 -97293743#1 -24735617#1 24735608#0 -24735608#0" />
    </vehicle>
    <vehicle id="type2_4081" depart="19.95" departLane="best" departPos="random" departSpeed="max">
        <route edges="1204059062 535549123#1 535549123#2 65423591#1 895454005 25042890 97293743#0 97293743#1 35631491#0 35631491#1 35631490 -431981404#1 -431981404#0 -432770522 -229472854 -432777381#2" />
    </vehicle>
    <vehicle id="type2_4082" depart="20.20" departLane="best" departPos="random" departSpeed="max">
        <route edges="192145205 431827307#0 431827307#1 24683531 431827302#0 431827302#1 431994306 431775779 431775778 431827300#0 24683535#3 24683536 948224714 -948224715 -948224713 -24791336#1 -24791336#0 24791335#6 1168279796 24791339#0 24791339#1 24791339#2 -637275760 -302965727#14 -302965727#13 -754427033 -24791350#4 1380250680 -754427031#0" />
    </vehicle>
    <vehicle id="type2_4083" depart="20.45" departLane="best" departPos="random" departSpeed="max">
        <route edges="-24735604#1 293256120#1 293256120#2 293256120#3 24699018#1 -24735616#1 -626957568 626440000 24735618#2 626957566 24699023 -432248096 -1168287299#1 -1168287299#0 -432248094 -276638494#1 -276638494#0 292747017#0 292747017#1 1168799438#0 1168799438#1 276638492#0 276638492#1 276638492#2 276636146#0 276636146#1 276636146#2 276636146#3 276636146#4 534900635#0 534900635#1 -24683515#2 -24683515#1 -874437282 24683513 422425537#0 422425537#1 422425537#2 80477039#1 -431994306 -431827302#1 -431827302#0 -24683531 24683527#0 24683527#1 24683527#2 24683527#3 24683554#0 24683554#1 24683556 877695144 24683557#0 24683557#1" />
    </vehicle>
    <vehicle id="type2_4084" depart="20.69" departLane="best" departPos="random" departSpeed="max">
        <route edges="-1380250679#1 302965727#5 302965727#6 -895216932#6 -895216932#5 -895216932#4 -895216932#3 -895216932#2 -895216932#1 -895216932#0 -637275761#0 -24791350#4 -24791350#3 -24791350#2 -24791350#1 -24791350#0" />
    </vehicle>
    <vehicle id="type2_4087" depart="21.43" departLane="best" departPos="random" departSpeed="max">
        <route edges="-431827300#1 -431827300#0 -431775778 -431775779 -80477039#1 -80477039#0 -422425537#1 -422425537#0 -24683513 874437282 24683515#1 24683515#2 24683515#3 24683515#4 -24683560#8 -24683560#7 -24683560#6 -24683560#5 -24683560#4" />
    </vehicle>
    <vehicle id="type2_4088" depart="21.68" departLane="best" departPos="random" departSpeed="max">
        <route edges="668298285#0 668298285#1 -668298285#1 -668298285#0 -668298286 -25046811#1 -25046811#0 -25043046#2 -25043046#1 -24405506#4 25046387 -999609883#1 -999609883#0 25046412#5 25046412#6 25046412#7 854227941 -276636146#6 -276636146#5 -276636146#4 -276636146#3 -276636146#2 -276636146#1 -276636146#0 -276638492#2 -276638492#1 -276638492#0 -1168799438#1 -1168799438#0 -292747017#1 -24699032#0 -24699025#8 -376539199 24699027#5 -376539200" />
    </vehicle>
    <vehicle id="type2_4091" depart="22.42" departLane="best" departPos="random" departSpeed="max">
        <route edges="1380250679#0 -302965727#4 -302965727#3 895462375#0 895462375#1 -895462378#1 -895462378#0 -877695144 -24791386 -24683554#1 -24683554#0 -24683527#3 -24683527#2 -24683527#1 -24683527#0 24683531 431827302#0 431827302#1 -24683519#1" />
    </vehicle>
    <vehicle id="type2_4092" depart="22.66" departLane="best" departPos="random" departSpeed="max">
        <route edges="-24683536 -24683535#3 -431827300#0 -431775778 -431775779 -80477039#1 -80477039#0 -422425537#1 -422425537#0 -24683513 874437282 24683515#1 24683515#2 24683515#3 24683515#4 24683559#1" />
    </vehicle>
    <vehicle id="type2_4093" depart="22.91" departLane="best" departPos="random" departSpeed="max">
        <route edges="-1168541559 -895216916#0 -334561591#2 -334561591#1 -334561591#0 -27347564#2 24783924#2 24783924#3 24783924#4 24783924#5 24783924#6 -534900637#4 -534900637#3 1168541556" />
    </vehicle>
    <vehicle id="type2_4097" depart="23.89" departLane="best" departPos="random" departSpeed="max">
        <route edges="-660590672 652107161 -854227946#4 -854227946#3 -854227946#2 -854227946#1 -854227946#0 179181038#0 179181038#1-AddedOnRampEdge 179181038#1 652088615#1 652088615#1-AddedOffRampEdge 652044149 25054595#2 25054595#3 25054595#4 25054595#5 25054595#6 25054595#7 25054602#1 25054602#2 25054587#0 25054587#1 25054587#2 432770524 432807560 432777381#0 432777381#1 432777381#2 229472854 432770522 431981404#0 431981404#1 -25043183#1 -25043183#0 -421121876#1 421121863#0 421121863#1 421121863#2 25043180#1 -432768292#6 -432768292#5 -432768292#4 -432768292#3 -432768292#2 -432768292#1 -432768292#0 -432768291#5 1201877287" />
    </vehicle>
    <vehicle id="type2_4098" depart="24.14" departLane="best" departPos="random" departSpeed="max">
        <route edges="24405520#0 24683612#2 535910625#1 541024816 535566679#0 535566679#1 535566679#1-AddedOffRampEdge 314066420#1 314066420#2 314066420#3 535910621#1 535910621#1-AddedOffRampEdge 535910621#2 1087552159 24783924#0 24783924#1 24783924#2 24783924#3 24783924#4 24783924#5 24783924#6 24783924#7 24783924#8 24783924#9 24783924#10 24783924#11 24783924#12 1205662256#3 1205662256#1 1205662257#0 1205662257#1 1205662257#2 1205662257#3" />
    </vehicle>
    <vehicle id="type2_4099" depart="24.39" departLane="best" departPos="random" departSpeed="max">
        <route edges="25054217#0 25054224#0 25054224#1 -25054228#0 -25054216#0 24405514#1 24405514#2 422730660#1 535572607 83002986 535574528 24405502#0 24405502#1 24405502#2 24405502#3 -854227946#4 -854227946#3 -854227946#2 -854227946#1 -854227946#0 179181038#0 179181038#1-AddedOnRampEdge 179181038#1 179181038#2 179181038#3 1094268114#0 1094268114#1 -999609877 1094268113 25054145#0 25054145#1 854227948 27347564#0 1094282281" />
    </vehicle>
    <vehicle id="type2_40101" depart="24.88" departLane="best" departPos="random" departSpeed="max">
        <route edges="-1203849761 894591184#2 1080631196 -376543465#0 -27782156 1168311253#2 1168311253#3 376543461 98231048#1 98231048#2 376543466#0 376543466#1 376543466#2 -24405506#8 -24405506#7 -24405506#6 -24405506#5 -24405506#4 -24405506#3 -24405506#2 -24405506#1 -24405506#0 24405507#0 24405507#1 24405507#2 24405507#3 24405512#0 24405512#1 24405514#0 24405514#1 24405514#2 422730660#1 535572607 83002986 535574528 24405502#0 24405502#1 24405502#2 24405502#3 -854227946#4 -854227946#3 25054139 -25054138#2 -25054138#1 -25054138#0 -1094268118#1 -1094268118#0" />
    </vehicle>
    <vehicle id="type2_40102" depart="25.13" departLane="best" departPos="random" departSpeed="max">