<?xml version="1.0" encoding="UTF-8"?>

<!-- generated on 2025-05-04 10:06:47 by Eclipse SUMO netconvert Version 1.18.0
<configuration xmlns:xsi="http://www.w3.org/2001/XMLSchema-instance" xsi:noNamespaceSchemaLocation="http://sumo.dlr.de/xsd/netconvertConfiguration.xsd">

    <input>
        <type-files value="input/simon_bolivar.typ.xml"/>
        <osm-files value="input/simon_bolivar.osm.xml"/>
    </input>

    <output>
        <output-file value="input/simon_bolivar.net.xml"/>
        <plain-output-prefix value="input/simon_bolivar_plain"/>
    </output>

    <projection>
        <proj.utm value="true"/>
    </projection>

    <processing>
        <geometry.remove value="true"/>
    </processing>

    <tls_building>
        <tls.guess value="true"/>
    </tls_building>

    <ramp_guessing>
        <ramps.guess value="true"/>
    </ramp_guessing>

    <report>
        <verbose value="true"/>
    </report>

</configuration>
-->

<types version="1.16" xmlns:xsi="http://www.w3.org/2001/XMLSchema-instance" xsi:noNamespaceSchemaLocation="http://sumo.dlr.de/xsd/types_file.xsd">
    <type id="highway.cycleway" priority="1" numLanes="1" speed="5.56" allow="bicycle" oneway="0" width="2.00"/>
    <type id="highway.footway" priority="1" numLanes="1" speed="2.78" allow="pedestrian" oneway="1" width="2.00"/>
    <type id="highway.living_street" priority="2" numLanes="1" speed="2.78" allow="passenger" oneway="0"/>
    <type id="highway.path" priority="1" numLanes="1" speed="5.56" allow="pedestrian bicycle" oneway="0" width="2.00"/>
    <type id="highway.pedestrian" priority="1" numLanes="1" speed="2.78" allow="pedestrian" oneway="1" width="2.00"/>
    <type id="highway.primary" priority="12" numLanes="2" speed="27.78" allow="passenger" oneway="0"/>
    <type id="highway.primary_link" priority="7" numLanes="1" speed="22.22" allow="passenger" oneway="0"/>
    <type id="highway.residential" priority="3" numLanes="1" speed="13.89" allow="passenger" oneway="0"/>
    <type id="highway.secondary" priority="11" numLanes="1" speed="27.78" allow="passenger" oneway="0"/>
    <type id="highway.service" priority="1" numLanes="1" speed="5.56" allow="passenger" oneway="0"/>
    <type id="highway.steps" priority="1" numLanes="1" speed="1.39" allow="pedestrian" oneway="1" width="2.00"/>
    <type id="highway.tertiary" priority="10" numLanes="1" speed="22.22" allow="passenger" oneway="0"/>
    <type id="highway.track" priority="1" numLanes="1" speed="5.56" allow="pedestrian motorcycle moped bicycle" oneway="0"/>
    <type id="highway.trunk" priority="13" numLanes="2" speed="27.78" allow="passenger" oneway="0"/>
    <type id="highway.trunk_link" priority="8" numLanes="1" speed="22.22" allow="passenger" oneway="0"/>
    <type id="highway.unclassified" priority="4" numLanes="1" speed="13.89" allow="passenger" oneway="0"/>

</types>
