<?xml version="1.0" encoding="UTF-8"?>

<!-- generated on 2025-05-04 10:20:21.857649 by randomTrips.py 9a83456
<configuration>
    <net-file value="input\simon_bolivar.net.xml"/>
    <output-trip-file value="input\simon_bolivar_type2.trips.xml"/>
    <prefix value="type2"/>
    <trip-attributes value="departLane='best' departSpeed='max' departPos='random'"/>
    <fringe-factor value="3"/>
    <validate value="True"/>
    <insertion-density value="60.0"/>
</configuration>
-->

<!-- generated on 2025-05-04 10:19:57 by Eclipse SUMO duarouter Version 1.18.0
<configuration xmlns:xsi="http://www.w3.org/2001/XMLSchema-instance" xsi:noNamespaceSchemaLocation="http://sumo.dlr.de/xsd/duarouterConfiguration.xsd">

    <input>
        <net-file value="input\simon_bolivar.net.xml"/>
        <route-files value="input\simon_bolivar_type2.trips.xml"/>
    </input>

    <output>
        <output-file value="input\simon_bolivar_type2.trips.xml.tmp"/>
        <alternatives-output value="NUL"/>
        <write-trips value="true"/>
    </output>

    <time>
        <begin value="0"/>
        <end value="3600"/>
    </time>

    <report>
        <no-warnings value="true"/>
        <ignore-errors value="true"/>
        <no-step-log value="true"/>
    </report>

</configuration>
-->

<routes xmlns:xsi="http://www.w3.org/2001/XMLSchema-instance" xsi:noNamespaceSchemaLocation="http://sumo.dlr.de/xsd/routes_file.xsd">
    <trip id="type21" depart="0.16" departLane="best" departPos="random" departSpeed="max" from="-25046393#0" to="-25054221#0"/>
    <trip id="type22" depart="0.33" departLane="best" departPos="random" departSpeed="max" from="25046423" to="25042891#2"/>
    <trip id="type23" depart="0.49" departLane="best" departPos="random" departSpeed="max" from="432234379#1" to="-24683535#5"/>
    <trip id="type24" depart="0.66" departLane="best" departPos="random" departSpeed="max" from="-432770524" to="-1190782923"/>
    <trip id="type25" depart="0.82" departLane="best" departPos="random" departSpeed="max" from="-24791355#1" to="1205693236"/>
    <trip id="type26" depart="0.99" departLane="best" departPos="random" departSpeed="max" from="-1168541555#0" to="-25046396#1"/>
    <trip id="type27" depart="1.15" departLane="best" departPos="random" departSpeed="max" from="24735608#0" to="24405501#1"/>
    <trip id="type28" depart="1.31" departLane="best" departPos="random" departSpeed="max" from="-24791575#3" to="24683560#2"/>
    <trip id="type29" depart="1.48" departLane="best" departPos="random" departSpeed="max" from="302965727#12" to="-1094251932"/>
    <trip id="type210" depart="1.64" departLane="best" departPos="random" departSpeed="max" from="293256120#3" to="25042922#3"/>
    <trip id="type211" depart="1.81" departLane="best" departPos="random" departSpeed="max" from="-293255544#0" to="-25035600#0"/>
    <trip id="type212" depart="1.97" departLane="best" departPos="random" departSpeed="max" from="854227946#0" to="-431827306#2"/>
    <trip id="type213" depart="2.13" departLane="best" departPos="random" departSpeed="max" from="-186530820#1" to="-24683560#4"/>
    <trip id="type214" depart="2.30" departLane="best" departPos="random" departSpeed="max" from="376539778#1" to="24699027#6"/>
    <trip id="type215" depart="2.46" departLane="best" departPos="random" departSpeed="max" from="293256863" to="25046400#1"/>
    <trip id="type216" depart="2.63" departLane="best" departPos="random" departSpeed="max" from="1205662257#0" to="894591169"/>
    <trip id="type217" depart="2.79" departLane="best" departPos="random" departSpeed="max" from="-376543472#0" to="24405507#3"/>
    <trip id="type218" depart="2.96" departLane="best" departPos="random" departSpeed="max" from="337312509#0" to="24699045#5"/>
    <trip id="type219" depart="3.12" departLane="best" departPos="random" departSpeed="max" from="420904972#3" to="24683540#2"/>
    <trip id="type220" depart="3.28" departLane="best" departPos="random" departSpeed="max" from="25043045#0" to="-1219475773"/>
    <trip id="type221" depart="3.45" departLane="best" departPos="random" departSpeed="max" from="-25042891#3" to="-334561890"/>
    <trip id="type222" depart="3.61" departLane="best" departPos="random" departSpeed="max" from="-1205693236" to="-25054591#0"/>
    <trip id="type223" depart="3.78" departLane="best" departPos="random" departSpeed="max" from="-234800473#1" to="-302965727#9"/>
    <trip id="type225" depart="4.11" departLane="best" departPos="random" departSpeed="max" from="-376539199" to="-25046433#0"/>
    <trip id="type226" depart="4.27" departLane="best" departPos="random" departSpeed="max" from="-25044932" to="637275761#0"/>
    <trip id="type227" depart="4.43" departLane="best" departPos="random" departSpeed="max" from="24735605" to="24699032#1"/>
    <trip id="type228" depart="4.60" departLane="best" departPos="random" departSpeed="max" from="-24699039#0" to="25046398#1"/>
    <trip id="type229" depart="4.76" departLane="best" departPos="random" departSpeed="max" from="-24699029#1" to="-80477039#0"/>
    <trip id="type230" depart="4.93" departLane="best" departPos="random" departSpeed="max" from="98246944#17" to="24735618#1"/>
    <trip id="type231" depart="5.09" departLane="best" departPos="random" departSpeed="max" from="199881960#2" to="25042906#0"/>
    <trip id="type232" depart="5.26" departLane="best" departPos="random" departSpeed="max" from="376539197" to="25054870#2"/>
    <trip id="type233" depart="5.42" departLane="best" departPos="random" departSpeed="max" from="-25042897" to="-1201844353"/>
    <trip id="type234" depart="5.58" departLane="best" departPos="random" departSpeed="max" from="-25054593" to="-293255743"/>
    <trip id="type236" depart="5.91" departLane="best" departPos="random" departSpeed="max" from="431775780" to="-376543470"/>
    <trip id="type237" depart="6.08" departLane="best" departPos="random" departSpeed="max" from="24783924#0" to="-895216916#1"/>
    <trip id="type238" depart="6.24" departLane="best" departPos="random" departSpeed="max" from="432807561" to="1168542195#1"/>
    <trip id="type239" depart="6.40" departLane="best" departPos="random" departSpeed="max" from="-25044930#0" to="-25111439#1"/>
    <trip id="type240" depart="6.57" departLane="best" departPos="random" departSpeed="max" from="229472855#0" to="-293255543"/>
    <trip id="type241" depart="6.73" departLane="best" departPos="random" departSpeed="max" from="24405516#3" to="432770530"/>
    <trip id="type242" depart="6.90" departLane="best" departPos="random" departSpeed="max" from="-431775782" to="-25054146#1"/>
    <trip id="type243" depart="7.06" departLane="best" departPos="random" departSpeed="max" from="999668241" to="1211392025"/>
    <trip id="type244" depart="7.23" departLane="best" departPos="random" departSpeed="max" from="-1380250678" to="-1380250679#0"/>
    <trip id="type246" depart="7.55" departLane="best" departPos="random" departSpeed="max" from="276638492#2" to="1079864363"/>
    <trip id="type248" depart="7.88" departLane="best" departPos="random" departSpeed="max" from="999609879" to="199881969#1"/>
    <trip id="type249" depart="8.05" departLane="best" departPos="random" departSpeed="max" from="895216896#1" to="428334464"/>
    <trip id="type250" depart="8.21" departLane="best" departPos="random" departSpeed="max" from="-1094268112" to="25044937"/>
    <trip id="type251" depart="8.38" departLane="best" departPos="random" departSpeed="max" from="25042889#3" to="24160012#1"/>
    <trip id="type252" depart="8.54" departLane="best" departPos="random" departSpeed="max" from="-25044932" to="24783924#1"/>
    <trip id="type253" depart="8.70" departLane="best" departPos="random" departSpeed="max" from="-24405506#1" to="1094298144"/>
    <trip id="type254" depart="8.87" departLane="best" departPos="random" departSpeed="max" from="-668298285#1" to="754427033"/>
    <trip id="type255" depart="9.03" departLane="best" departPos="random" departSpeed="max" from="431775778" to="-293255544#2"/>
    <trip id="type257" depart="9.36" departLane="best" departPos="random" departSpeed="max" from="432777387" to="431827300#1"/>
    <trip id="type258" depart="9.52" departLane="best" departPos="random" departSpeed="max" from="-25054142#3" to="24735616#3"/>
    <trip id="type259" depart="9.69" departLane="best" departPos="random" departSpeed="max" from="24683557#2" to="-25035451#3"/>
    <trip id="type260" depart="9.85" departLane="best" departPos="random" departSpeed="max" from="25054591#0" to="24405488"/>
    <trip id="type261" depart="10.02" departLane="best" departPos="random" departSpeed="max" from="25111441#1" to="220666028#2"/>
    <trip id="type262" depart="10.18" departLane="best" departPos="random" departSpeed="max" from="-107938343" to="-421121876#0"/>
    <trip id="type263" depart="10.35" departLane="best" departPos="random" departSpeed="max" from="-1168287296#1" to="535910625#0"/>
    <trip id="type264" depart="10.51" departLane="best" departPos="random" departSpeed="max" from="431827298" to="376539198"/>
    <trip id="type265" depart="10.67" departLane="best" departPos="random" departSpeed="max" from="-25054228#4" to="-24405491"/>
    <trip id="type266" depart="10.84" departLane="best" departPos="random" departSpeed="max" from="431827297#2" to="668298285#1"/>
    <trip id="type267" depart="11.00" departLane="best" departPos="random" departSpeed="max" from="-1216978711" to="1205118877"/>
    <trip id="type268" depart="11.17" departLane="best" departPos="random" departSpeed="max" from="-1205662257#1" to="25054228#3"/>
    <trip id="type269" depart="11.33" departLane="best" departPos="random" departSpeed="max" from="25054595#0" to="-24735607#2"/>
    <trip id="type270" depart="11.50" departLane="best" departPos="random" departSpeed="max" from="-895216897" to="24405506#5"/>
    <trip id="type271" depart="11.66" departLane="best" departPos="random" departSpeed="max" from="-25044930#1" to="431827304#0"/>
    <trip id="type272" depart="11.82" departLane="best" departPos="random" departSpeed="max" from="-432770526#1" to="-25046813#0"/>
    <trip id="type273" depart="11.99" departLane="best" departPos="random" departSpeed="max" from="1205662259#4" to="25046400#1"/>
    <trip id="type274" depart="12.15" departLane="best" departPos="random" departSpeed="max" from="-24791335#2" to="-376543466#0"/>
    <trip id="type275" depart="12.32" departLane="best" departPos="random" departSpeed="max" from="999609878" to="24791339#1"/>
    <trip id="type276" depart="12.48" departLane="best" departPos="random" departSpeed="max" from="-534900637#1" to="1380250679#1"/>
    <trip id="type277" depart="12.64" departLane="best" departPos="random" departSpeed="max" from="-24405520#2" to="-25054224#0"/>
    <trip id="type278" depart="12.81" departLane="best" departPos="random" departSpeed="max" from="-276638493" to="24683557#2"/>
    <trip id="type279" depart="12.97" departLane="best" departPos="random" departSpeed="max" from="-25042900#3" to="-25054216#0"/>
    <trip id="type280" depart="13.14" departLane="best" departPos="random" departSpeed="max" from="-1205662259#1" to="24735606"/>
    <trip id="type281" depart="13.30" departLane="best" departPos="random" departSpeed="max" from="-25042897" to="432777385#1"/>
    <trip id="type283" depart="13.63" departLane="best" departPos="random" departSpeed="max" from="-25042911#2" to="25042882#1"/>
    <trip id="type284" depart="13.79" departLane="best" departPos="random" departSpeed="max" from="-24791350#0" to="-24735616#1"/>
    <trip id="type285" depart="13.96" departLane="best" departPos="random" departSpeed="max" from="541024816" to="24683531"/>
    <trip id="type287" depart="14.29" departLane="best" departPos="random" departSpeed="max" from="293256888" to="-25044935"/>
    <trip id="type288" depart="14.45" departLane="best" departPos="random" departSpeed="max" from="-199881963" to="1094268120"/>
    <trip id="type289" depart="14.62" departLane="best" departPos="random" departSpeed="max" from="-432770526#2" to="1190782926"/>
    <trip id="type290" depart="14.78" departLane="best" departPos="random" departSpeed="max" from="25046403#0" to="25042889#2"/>
    <trip id="type291" depart="14.94" departLane="best" departPos="random" departSpeed="max" from="948224715" to="-24683610#1"/>
    <trip id="type292" depart="15.11" departLane="best" departPos="random" departSpeed="max" from="-431827302#1" to="-431981406"/>
    <trip id="type293" depart="15.27" departLane="best" departPos="random" departSpeed="max" from="420904972#3" to="-25111441#2"/>
    <trip id="type294" depart="15.44" departLane="best" departPos="random" departSpeed="max" from="-24735609" to="1168311254"/>
    <trip id="type295" depart="15.60" departLane="best" departPos="random" departSpeed="max" from="-432770524" to="-302965728#1"/>
    <trip id="type296" depart="15.77" departLane="best" departPos="random" departSpeed="max" from="-25043043#1" to="535569073"/>
    <trip id="type297" depart="15.93" departLane="best" departPos="random" departSpeed="max" from="-626957571#1" to="429376298"/>
    <trip id="type299" depart="16.26" departLane="best" departPos="random" departSpeed="max" from="999672221" to="376543464#2"/>
    <trip id="type2100" depart="16.42" departLane="best" departPos="random" departSpeed="max" from="894591196" to="535572607"/>
    <trip id="type2101" depart="16.59" departLane="best" departPos="random" departSpeed="max" from="376542025#1" to="-25042910#1"/>
    <trip id="type2102" depart="16.75" departLane="best" departPos="random" departSpeed="max" from="-897097401#0" to="-25046819#0"/>
    <trip id="type2103" depart="16.91" departLane="best" departPos="random" departSpeed="max" from="-431827300#1" to="-24405492#1"/>
    <trip id="type2104" depart="17.08" departLane="best" departPos="random" departSpeed="max" from="-376543473" to="895462375#2"/>
    <trip id="type2106" depart="17.41" departLane="best" departPos="random" departSpeed="max" from="-679902285" to="1080631195#1"/>
    <trip id="type2107" depart="17.57" departLane="best" departPos="random" departSpeed="max" from="854227946#0" to="98246944#4"/>
    <trip id="type2108" depart="17.74" departLane="best" departPos="random" departSpeed="max" from="199836127#1" to="25044932"/>
    <trip id="type2109" depart="17.90" departLane="best" departPos="random" departSpeed="max" from="-24699018#0" to="-372239263#0"/>
    <trip id="type2110" depart="18.06" departLane="best" departPos="random" departSpeed="max" from="894591196" to="24683544"/>
    <trip id="type2111" depart="18.23" departLane="best" departPos="random" departSpeed="max" from="1205693234#1" to="25054138#1"/>
    <trip id="type2112" depart="18.39" departLane="best" departPos="random" departSpeed="max" from="-1203849759" to="24683551#1"/>
    <trip id="type2113" depart="18.56" departLane="best" departPos="random" departSpeed="max" from="1094251934" to="421121949"/>
    <trip id="type2114" depart="18.72" departLane="best" departPos="random" departSpeed="max" from="-24699025#3" to="83002986"/>
    <trip id="type2115" depart="18.89" departLane="best" departPos="random" departSpeed="max" from="-1205693236" to="-25044929#0"/>
    <trip id="type2116" depart="19.05" departLane="best" departPos="random" departSpeed="max" from="24683525#2" to="25042889#9"/>
    <trip id="type2120" depart="19.71" departLane="best" departPos="random" departSpeed="max" from="-432770520#2" to="24683550#2"/>
    <trip id="type2121" depart="19.87" departLane="best" departPos="random" departSpeed="max" from="1168524083" to="626957571#0"/>
    <trip id="type2122" depart="20.03" departLane="best" departPos="random" departSpeed="max" from="-24791337" to="25044929#2"/>
    <trip id="type2123" depart="20.20" departLane="best" departPos="random" departSpeed="max" from="-25042912#1" to="-895216916#1"/>
    <trip id="type2124" depart="20.36" departLane="best" departPos="random" departSpeed="max" from="24791575#1" to="-376539192"/>
    <trip id="type2125" depart="20.53" departLane="best" departPos="random" departSpeed="max" from="-25054595#2" to="25054145#0"/>
    <trip id="type2126" depart="20.69" departLane="best" departPos="random" departSpeed="max" from="-1205662260" to="1168542194#3"/>
    <trip id="type2127" depart="20.86" departLane="best" departPos="random" departSpeed="max" from="999672220" to="98246944#7"/>
    <trip id="type2128" depart="21.02" departLane="best" departPos="random" departSpeed="max" from="-1205667518" to="-25046815#1"/>
    <trip id="type2129" depart="21.18" departLane="best" departPos="random" departSpeed="max" from="-25044930#1" to="626957566"/>
    <trip id="type2130" depart="21.35" departLane="best" departPos="random" departSpeed="max" from="431827304#1" to="431981404#0"/>
    <trip id="type2131" depart="21.51" departLane="best" departPos="random" departSpeed="max" from="-376539196#3" to="-25042890"/>
    <trip id="type2132" depart="21.68" departLane="best" departPos="random" departSpeed="max" from="357850163#0" to="25043045#1"/>
    <trip id="type2133" depart="21.84" departLane="best" departPos="random" departSpeed="max" from="24683560#3" to="897097402#0"/>
    <trip id="type2134" depart="22.01" departLane="best" departPos="random" departSpeed="max" from="24735617#0" to="-1094251934"/>
    <trip id="type2135" depart="22.17" departLane="best" departPos="random" departSpeed="max" from="31895149#0" to="-372239271"/>
    <trip id="type2136" depart="22.33" departLane="best" departPos="random" departSpeed="max" from="24791339#2" to="650356319"/>
    <trip id="type2137" depart="22.50" departLane="best" departPos="random" departSpeed="max" from="-24683535#6" to="-24699044#0"/>
    <trip id="type2138" depart="22.66" departLane="best" departPos="random" departSpeed="max" from="-24405497" to="24405509#1"/>
    <trip id="type2139" depart="22.83" departLane="best" departPos="random" departSpeed="max" from="-25045241" to="24699028"/>
    <trip id="type2140" depart="22.99" departLane="best" departPos="random" departSpeed="max" from="25044934#2" to="-25046412#3"/>
    <trip id="type2141" depart="23.15" departLane="best" departPos="random" departSpeed="max" from="24699045#2" to="-293255546"/>
    <trip id="type2142" depart="23.32" departLane="best" departPos="random" departSpeed="max" from="-98231048#0" to="432777385#1"/>
    <trip id="type2143" depart="23.48" departLane="best" departPos="random" departSpeed="max" from="376539203" to="-24683551#0"/>
    <trip id="type2144" depart="23.65" departLane="best" departPos="random" departSpeed="max" from="-432770526#2" to="-302965727#4"/>
    <trip id="type2145" depart="23.81" departLane="best" departPos="random" departSpeed="max" from="-107938377#0" to="25054595#6"/>
    <trip id="type2147" depart="24.14" departLane="best" departPos="random" departSpeed="max" from="25046813#0" to="24405507#2"/>
    <trip id="type2148" depart="24.30" departLane="best" departPos="random" departSpeed="max" from="-432775731#1" to="-1094261603#3"/>
    <trip id="type2149" depart="24.47" departLane="best" departPos="random" departSpeed="max" from="-1205679702#0" to="431994307"/>
    <trip id="type2150" depart="24.63" departLane="best" departPos="random" departSpeed="max" from="432770524" to="24405501#1"/>
    <trip id="type2151" depart="24.80" departLane="best" departPos="random" departSpeed="max" from="369018506#0" to="24683549#1"/>
    <trip id="type2152" depart="24.96" departLane="best" departPos="random" departSpeed="max" from="-24683557#0" to="-24735604#0"/>
    <trip id="type2153" depart="25.13" departLane="best" departPos="random" departSpeed="max" from="-25054582#0" to="432770531#3"/>
    <trip id="type2154" depart="25.29" departLane="best" departPos="random" departSpeed="max" from="293255543" to="428326182"/>
    <trip id="type2155" depart="25.45" departLane="best" departPos="random" departSpeed="max" from="432768291#6" to="-25046433#0"/>
    <trip id="type2156" depart="25.62" departLane="best" departPos="random" departSpeed="max" from="-25043043#0" to="-24699025#0"/>
    <trip id="type2157" depart="25.78" departLane="best" departPos="random" departSpeed="max" from="25111445#1" to="432248094"/>
    <trip id="type2159" depart="26.11" departLane="best" departPos="random" departSpeed="max" from="-24699017#2" to="535922410"/>
    <trip id="type2160" depart="26.28" departLane="best" departPos="random" departSpeed="max" from="421121863#2" to="895216896#1"/>
    <trip id="type2162" depart="26.60" departLane="best" departPos="random" departSpeed="max" from="-1168541553" to="25046418#0"/>
    <trip id="type2163" depart="26.77" departLane="best" departPos="random" departSpeed="max" from="-27408621#1" to="538972997#1"/>
    <trip id="type2164" depart="26.93" departLane="best" departPos="random" departSpeed="max" from="293255909#2" to="429690525"/>
    <trip id="type2165" depart="27.10" departLane="best" departPos="random" departSpeed="max" from="302965727#4" to="-293255732"/>
    <trip id="type2166" depart="27.26" departLane="best" departPos="random" departSpeed="max" from="27408621#0" to="-24699027#8"/>
    <trip id="type2168" depart="27.59" departLane="best" departPos="random" departSpeed="max" from="-25035451#2" to="334549232"/>
    <trip id="type2169" depart="27.75" departLane="best" departPos="random" departSpeed="max" from="-80477039#0" to="-376539202"/>
    <trip id="type2171" depart="28.08" departLane="best" departPos="random" departSpeed="max" from="-1168311254" to="-25045239#0"/>
    <trip id="type2172" depart="28.25" departLane="best" departPos="random" departSpeed="max" from="-25111486" to="429690526"/>
    <trip id="type2173" depart="28.41" departLane="best" departPos="random" departSpeed="max" from="894591163#2" to="-302965728#3"/>
    <trip id="type2175" depart="28.74" departLane="best" departPos="random" departSpeed="max" from="897097401#1" to="24160011"/>
    <trip id="type2176" depart="28.90" departLane="best" departPos="random" departSpeed="max" from="637275761#0" to="-24699044#0"/>
    <trip id="type2177" depart="29.07" departLane="best" departPos="random" departSpeed="max" from="895216895" to="-25043180#0"/>
    <trip id="type2178" depart="29.23" departLane="best" departPos="random" departSpeed="max" from="893289558" to="-293255555"/>
    <trip id="type2179" depart="29.40" departLane="best" departPos="random" departSpeed="max" from="-24405501#1" to="1094298143#1"/>
    <trip id="type2180" depart="29.56" departLane="best" departPos="random" departSpeed="max" from="25046400#0" to="-376543469#0"/>
    <trip id="type2181" depart="29.72" departLane="best" departPos="random" departSpeed="max" from="24683550#0" to="1216978711"/>
    <trip id="type2183" depart="30.05" departLane="best" departPos="random" departSpeed="max" from="-25043182#2" to="25044568"/>
    <trip id="type2184" depart="30.22" departLane="best" departPos="random" departSpeed="max" from="-107938350#3" to="535571842"/>
    <trip id="type2185" depart="30.38" departLane="best" departPos="random" departSpeed="max" from="1205662259#1" to="25044933#1"/>
    <trip id="type2186" depart="30.54" departLane="best" departPos="random" departSpeed="max" from="25046813#2" to="25042887#1"/>
    <trip id="type2187" depart="30.71" departLane="best" departPos="random" departSpeed="max" from="-372239263#0" to="-24405514#1"/>
    <trip id="type2188" depart="30.87" departLane="best" departPos="random" departSpeed="max" from="24791342#2" to="-429690524#0"/>
    <trip id="type2189" depart="31.04" departLane="best" departPos="random" departSpeed="max" from="-25054590#2" to="420905006#1"/>
    <trip id="type2190" depart="31.20" departLane="best" departPos="random" departSpeed="max" from="25044937" to="-376539192"/>
    <trip id="type2191" depart="31.37" departLane="best" departPos="random" departSpeed="max" from="-25054583#1" to="-992340212#2"/>
    <trip id="type2192" depart="31.53" departLane="best" departPos="random" departSpeed="max" from="-431827302#1" to="-372239259#0"/>
    <trip id="type2193" depart="31.69" departLane="best" departPos="random" departSpeed="max" from="-24683520" to="107938391#2"/>
    <trip id="type2194" depart="31.86" departLane="best" departPos="random" departSpeed="max" from="637275764#1" to="25042892"/>
    <trip id="type2195" depart="32.02" departLane="best" departPos="random" departSpeed="max" from="432770521#1" to="24699041#4"/>
    <trip id="type2196" depart="32.19" departLane="best" departPos="random" departSpeed="max" from="-25054217#2" to="24405504#0"/>
    <trip id="type2197" depart="32.35" departLane="best" departPos="random" departSpeed="max" from="-107938343" to="-334561590"/>
    <trip id="type2198" depart="32.52" departLane="best" departPos="random" departSpeed="max" from="-432777382" to="24683545"/>
    <trip id="type2199" depart="32.68" departLane="best" departPos="random" departSpeed="max" from="24735618#0" to="1190782924"/>
    <trip id="type2200" depart="32.84" departLane="best" departPos="random" departSpeed="max" from="-626957570#0" to="-25046819#0"/>
    <trip id="type2201" depart="33.01" departLane="best" departPos="random" departSpeed="max" from="-894591187" to="432775731#1"/>
    <trip id="type2202" depart="33.17" departLane="best" departPos="random" departSpeed="max" from="293255543" to="-25042915#3"/>
    <trip id="type2204" depart="33.50" departLane="best" departPos="random" departSpeed="max" from="24699041#5" to="-431827304#4"/>
    <trip id="type2205" depart="33.66" departLane="best" departPos="random" departSpeed="max" from="31895154" to="25054142#1"/>
    <trip id="type2206" depart="33.83" departLane="best" departPos="random" departSpeed="max" from="25035451#0" to="-25054224#0"/>
    <trip id="type2207" depart="33.99" departLane="best" departPos="random" departSpeed="max" from="-24783924#5" to="-1168542193#0"/>
    <trip id="type2208" depart="34.16" departLane="best" departPos="random" departSpeed="max" from="-25042920#2" to="1201838049"/>
    <trip id="type2209" depart="34.32" departLane="best" departPos="random" departSpeed="max" from="376543462" to="-24405520#0"/>
    <trip id="type2210" depart="34.49" departLane="best" departPos="random" departSpeed="max" from="-432248099#6" to="24735604#0"/>
    <trip id="type2211" depart="34.65" departLane="best" departPos="random" departSpeed="max" from="-24735615" to="25042920#1"/>
    <trip id="type2212" depart="34.81" departLane="best" departPos="random" departSpeed="max" from="107938364" to="-25054870#2"/>
    <trip id="type2213" depart="34.98" departLane="best" departPos="random" departSpeed="max" from="24783924#10" to="-1080631189"/>
    <trip id="type2214" depart="35.14" departLane="best" departPos="random" departSpeed="max" from="25054217#0" to="25054595#2"/>
    <trip id="type2215" depart="35.31" departLane="best" departPos="random" departSpeed="max" from="-24405497" to="1094251932"/>
    <trip id="type2216" depart="35.47" departLane="best" departPos="random" departSpeed="max" from="-24699045#5" to="769933617"/>
    <trip id="type2217" depart="35.64" departLane="best" departPos="random" departSpeed="max" from="1168287297#1" to="-199836127#1"/>
    <trip id="type2218" depart="35.80" departLane="best" departPos="random" departSpeed="max" from="-25043042" to="420905011#0"/>
    <trip id="type2219" depart="35.96" departLane="best" departPos="random" departSpeed="max" from="-754427031#1" to="293255911#2"/>
    <trip id="type2220" depart="36.13" departLane="best" departPos="random" departSpeed="max" from="24791350#2" to="948224713"/>
    <trip id="type2222" depart="36.46" departLane="best" departPos="random" departSpeed="max" from="431994307" to="24699036#3"/>
    <trip id="type2223" depart="36.62" departLane="best" departPos="random" departSpeed="max" from="25044936" to="1205693235"/>
    <trip id="type2224" depart="36.79" departLane="best" departPos="random" departSpeed="max" from="337623511#0" to="24405504#0"/>
    <trip id="type2225" depart="36.95" departLane="best" departPos="random" departSpeed="max" from="432768291#0" to="25046813#2"/>
    <trip id="type2226" depart="37.11" departLane="best" departPos="random" departSpeed="max" from="-895216896#0" to="-276641591"/>
    <trip id="type2227" depart="37.28" departLane="best" departPos="random" departSpeed="max" from="-25042923#1" to="24735613"/>
    <trip id="type2228" depart="37.44" departLane="best" departPos="random" departSpeed="max" from="25054595#0" to="179181038#7"/>
    <trip id="type2229" depart="37.61" departLane="best" departPos="random" departSpeed="max" from="24699029#1" to="-302965727#10"/>
    <trip id="type2230" depart="37.77" departLane="best" departPos="random" departSpeed="max" from="-1205679706" to="-334560316"/>
    <trip id="type2232" depart="38.10" departLane="best" departPos="random" departSpeed="max" from="1205662260" to="-24791335#0"/>
    <trip id="type2233" depart="38.26" departLane="best" departPos="random" departSpeed="max" from="-25042901" to="25042916#1"/>
    <trip id="type2234" depart="38.43" departLane="best" departPos="random" departSpeed="max" from="25043180#1" to="-24405506#3"/>
    <trip id="type2235" depart="38.59" departLane="best" departPos="random" departSpeed="max" from="-431827307#1" to="24405492#1"/>
    <trip id="type2236" depart="38.76" departLane="best" departPos="random" departSpeed="max" from="-432768291#2" to="-25046421"/>
    <trip id="type2237" depart="38.92" departLane="best" departPos="random" departSpeed="max" from="-432770520#5" to="432777385#1"/>
    <trip id="type2238" depart="39.08" departLane="best" departPos="random" departSpeed="max" from="24405516#1" to="25042919#1"/>
    <trip id="type2239" depart="39.25" departLane="best" departPos="random" departSpeed="max" from="376543474#2" to="25054587#1"/>
    <trip id="type2240" depart="39.41" departLane="best" departPos="random" departSpeed="max" from="-376543474#4" to="-1092457245"/>
    <trip id="type2241" depart="39.58" departLane="best" departPos="random" departSpeed="max" from="-302965728#4" to="25054216#1"/>