<?xml version="1.0" encoding="UTF-8"?>

<!-- generated on 2025-05-11 01:14:35 by Eclipse SUMO duarouter Version 1.18.0
<configuration xmlns:xsi="http://www.w3.org/2001/XMLSchema-instance" xsi:noNamespaceSchemaLocation="http://sumo.dlr.de/xsd/duarouterConfiguration.xsd">

    <input>
        <net-file value="D:\TrAD-Quito\sumo\input\simon_bolivar.net.xml"/>
        <additional-files value="D:\TrAD-Quito\sumo\input\vehicles.add.xml"/>
        <route-files value="D:\TrAD-Quito\sumo\input\simon_bolivar_roi_140.trips.xml"/>
    </input>

    <output>
        <output-file value="D:\TrAD-Quito\sumo\input\simon_bolivar_roi_140.rou.xml"/>
    </output>

</configuration>
-->

<routes xmlns:xsi="http://www.w3.org/2001/XMLSchema-instance" xsi:noNamespaceSchemaLocation="http://sumo.dlr.de/xsd/routes_file.xsd">
    <vehicle id="roi_trip_0" type="veh_passenger" depart="0.00">
        <route edges="-1205679702#0 24160007#1 24160007#2 431981408#1 431981408#2 238875364#0 238875364#1 238875364#2 24683519#0 24683519#1 431994306 -80477039#1 -80477039#0 -422425537#1 -422425537#0 24683514#0 24683514#1 431827297#0 431827297#1 431827297#2 431827297#3 314066417 24160012#0 24160012#1 98246952 535554959#0 -854227939 -854227942 -507058716 -25046412#6 199881960#0 1175651171 507058717#0 507058717#1 25042889#11 423997744"/>
    </vehicle>
    <vehicle id="roi_trip_1" type="veh_passenger" depart="25.71">
        <route edges="1168283956 535922410-AddedOnRampEdge 535922410 24160011 535922409 24160010 541024817 83002985 1163917760 24160008 431989326 24160009"/>
    </vehicle>
    <vehicle id="roi_trip_2" type="veh_passenger" depart="51.43">
        <route edges="535922410 431981407 535910625#0 -24683612#2 24405520#1 24405520#2 -24405522#1 -24405522#0 1168126740 854227946#4 -24405502#3 -24405502#2 -24405502#1 -24405502#0 893289558 462693003 238875365 1168109380"/>
    </vehicle>
    <vehicle id="roi_trip_3" type="veh_passenger" depart="77.14">
        <route edges="199885792 428326182"/>
    </vehicle>
    <vehicle id="roi_trip_4" type="veh_passenger" depart="102.86">
        <route edges="24160020 541024817 83002985 1163917760 24160008 431989326 24160009 535922410-AddedOnRampEdge 535922410 24160011 535922409 431981408#0 431981408#1 431981408#2 238875364#0 238875364#1 238875364#2 24683519#0 24683519#1 431994306 431775779 431775778 431827300#0 24683535#3 24683536 948224714 -948224715 -948224713 -24791336#1 -24791336#0 -24791335#5 -24791335#4 -24791335#3 -24791335#2 -24791335#1 -24791335#0 424685850#1 535566666#1 314066421 314066421-AddedOffRampEdge"/>
    </vehicle>
    <vehicle id="roi_trip_5" type="veh_passenger" depart="128.57">
        <route edges="24160011 535922409 431981408#0 431981408#1 431981408#2 238875364#0 238875364#1 238875364#2 24683519#0 24683519#1 431994306 431775779 431775778 431827300#0 24683535#3 24683536 948224714 -948224715 -948224713 -24791336#1 -24791336#0 -24791335#5 -24791335#4 -24791335#3 -24791335#2 -24791335#1 -24791335#0 424685850#1 535566666#1 314066421 314066421-AddedOffRampEdge 24160007#0 1205679702#0 -1205679702#0"/>
    </vehicle>
    <vehicle id="roi_trip_6" type="veh_passenger" depart="154.29">
        <route edges="24160008 431989326 24160009 535922410-AddedOnRampEdge 535922410 24160011 535922409 431981408#0 431981408#1 431981408#2 238875364#0 238875364#1 238875364#2 24683519#0 24683519#1 431994306 431775779 431775778 431827300#0 24683535#3 24683536 948224714 -948224715 -948224713 -24791336#1 -24791336#0 -24791335#5 -24791335#4 -24791335#3 -24791335#2 -24791335#1 -24791335#0 424685850#1 535566666#1 314066421 314066421-AddedOffRampEdge 24160007#0 1205679702#0 1205679702#1 -1205679702#1"/>
    </vehicle>
    <vehicle id="roi_trip_7" type="veh_passenger" depart="180.00">
        <route edges="535922410 24160011 535922409 431981408#0 431981408#1 431981408#2 238875364#0 238875364#1 238875364#2 24683519#0 24683519#1 431994306 -80477039#1 -80477039#0 -422425537#1 -422425537#0 24683514#0 24683514#1 431827297#0 431827297#1 431827297#2 431827297#3 314066417 895708421"/>
    </vehicle>
    <vehicle id="roi_trip_8" type="veh_passenger" depart="205.71">
        <route edges="1205679702#1 -1205679702#1 -1205679702#0 24160007#1 24160007#2"/>
    </vehicle>
    <vehicle id="roi_trip_9" type="veh_passenger" depart="231.43">
        <route edges="199885792 428326182 314066418-AddedOnRampEdge 314066418 535572607 83002986 535574528 893289558 462693003 238875365 1168109380 535922409 24160010 541024817 83002985 1163917760 25042886 98246952 535554959#0 -854227939 -854227942 -507058716 -25046412#6 199881960#0 1175651171 507058717#0 507058717#1 25042889#11 423997744"/>
    </vehicle>
    <vehicle id="roi_trip_10" type="veh_passenger" depart="257.14">
        <route edges="895708421 431989326 24160009 535922410-AddedOnRampEdge"/>
    </vehicle>
    <vehicle id="roi_trip_11" type="veh_passenger" depart="282.86">
        <route edges="431981407 535910625#0 -24683612#2 24405520#1 24405520#2 -24405522#1 -24405522#0 1168126740 854227946#4 -24405502#3 -24405502#2 -24405502#1 -24405502#0 893289558 462693003 238875365 1168109380 535922409 24160010 541024817 83002985 1163917760 24160008 431989326"/>
    </vehicle>
    <vehicle id="roi_trip_12" type="veh_passenger" depart="308.57">
        <route edges="24160007#0 24160007#1 24160007#2 431981408#1 431981408#2 238875364#0 238875364#1 238875364#2 24683519#0 24683519#1 431994306 -80477039#1 -80477039#0 -422425537#1 -422425537#0 24683514#0 24683514#1 431827297#0 431827297#1 431827297#2 431827297#3 314066417 895708421 431989326 24160009 535922410-AddedOnRampEdge 535922410 24160011 535922409 24160010 541024817 83002985 1163917760 24160008"/>
    </vehicle>
    <vehicle id="roi_trip_13" type="veh_passenger" depart="334.29">
        <route edges="24160008 431989326 24160009 535922410-AddedOnRampEdge 535922410 24160011 535922409 431981408#0 431981408#1 431981408#2 238875364#0 238875364#1 238875364#2 24683519#0 24683519#1 431994306 431775779 431775778 431827300#0 24683535#3 24683536 948224714 -948224715 -948224713 -24791336#1 -24791336#0 -24791335#5 -24791335#4 -24791335#3 -24791335#2 -24791335#1 -24791335#0 424685850#1 535566666#1 314066421 314066421-AddedOffRampEdge 24160007#0 24160007#1"/>
    </vehicle>
    <vehicle id="roi_trip_14" type="veh_passenger" depart="360.00">
        <route edges="-1205679702#1 -1205679702#0 24160007#1 24160007#2 431981408#1 431981408#2 238875364#0 238875364#1 238875364#2 24683519#0 24683519#1 431994306 431775779 431775778 431827300#0 24683535#3 24683536 948224714 -948224715 -948224713 -24791336#1 -24791336#0 -24791335#5 -24791335#4 -24791335#3 -24791335#2 -24791335#1 -24791335#0 424685850#1 535566666#1 314066421 314066421-AddedOffRampEdge 24160007#0"/>
    </vehicle>
    <vehicle id="roi_trip_15" type="veh_passenger" depart="385.71">
        <route edges="24160010 541024817 83002985 1163917760 24160008 431989326 24160009 535922410-AddedOnRampEdge"/>
    </vehicle>
    <vehicle id="roi_trip_16" type="veh_passenger" depart="411.43">
        <route edges="1168283956 535922410-AddedOnRampEdge 535922410 24160011 535922409 431981408#0 431981408#1 431981408#2 238875364#0 238875364#1 238875364#2 24683519#0 24683519#1 431994306 431775779 431775778 431827300#0 24683535#3 24683536 948224714 -948224715 -948224713 -24791336#1 -24791336#0 -24791335#5 -24791335#4 -24791335#3 -24791335#2 -24791335#1 -24791335#0 424685850#1 535566666#1 314066421 314066421-AddedOffRampEdge 24160007#0 1205679702#0 1205679702#1"/>
    </vehicle>
    <vehicle id="roi_trip_17" type="veh_passenger" depart="437.14">
        <route edges="1205679702#0 -1205679702#0 24160007#1 24160007#2 431981408#1 431981408#2 238875364#0 238875364#1 238875364#2 24683519#0 24683519#1 431994306 -80477039#1 -80477039#0 -422425537#1 -422425537#0 24683514#0 24683514#1 431827297#0 431827297#1 431827297#2 431827297#3 314066417 895708421 431989326 24160009 535922410-AddedOnRampEdge"/>
    </vehicle>
    <vehicle id="roi_trip_18" type="veh_passenger" depart="462.86">
        <route edges="98246932 535554959#0 -854227939 -276636146#6 -276636146#5 534900635#0 534900635#1 -24683515#2 -24683515#1 -874437282 24683513 422425537#0 422425537#1 422425537#2 80477039#1 431775779 431775778 431827300#0 24683535#3 24683536 948224714 -948224715 -948224713 -24791336#1 -24791336#0 -24791335#5 -24791335#4 -24791335#3 -24791335#2 -24791335#1 -24791335#0 424685850#1 535566666#1 314066421 314066421-AddedOffRampEdge 24160020"/>
    </vehicle>
    <vehicle id="roi_trip_19" type="veh_passenger" depart="488.57">
        <route edges="24160010 541024817 83002985 1163917760 24160008 431989326 24160009 535922410-AddedOnRampEdge 535922410 24160011 535922409"/>
    </vehicle>
    <vehicle id="roi_trip_20" type="veh_passenger" depart="514.29">
        <route edges="431981407 535910625#0 -24683612#2 24405520#1 24405520#2 -24405522#1 -24405522#0 1168126740 854227946#4 -24405502#3 -24405502#2 -24405502#1 -24405502#0 893289558 462693003 238875365 1168109380 535922409 24160010 541024817 83002985 1163917760 25042886"/>
    </vehicle>
    <vehicle id="roi_trip_21" type="veh_passenger" depart="540.00">
        <route edges="24160020 541024817 83002985 1163917760 25042886"/>
    </vehicle>
    <vehicle id="roi_trip_22" type="veh_passenger" depart="565.71">
        <route edges="-1205679702#0 24160007#1 24160007#2 431981408#1 431981408#2 238875364#0 238875364#1 238875364#2 24683519#0 24683519#1 431994306 431775779 431775778 431827300#0 24683535#3 24683536 948224714 -948224715 -948224713 -24791336#1 -24791336#0 -24791335#5 -24791335#4 -24791335#3 -24791335#2 -24791335#1 -24791335#0 424685850#1 535566666#1 98246932"/>
    </vehicle>
    <vehicle id="roi_trip_23" type="veh_passenger" depart="591.43">
        <route edges="1168109380 535922409 431981408#0 431981408#1 431981408#2 238875364#0 238875364#1 238875364#2 24683519#0 24683519#1 431994306 -80477039#1 -80477039#0 -422425537#1 -422425537#0 24683514#0 24683514#1 431827297#0 431827297#1 431827297#2 431827297#3 199885792 428326182"/>
    </vehicle>
    <vehicle id="roi_trip_24" type="veh_passenger" depart="617.14">
        <route edges="431989326 24160009 535922410-AddedOnRampEdge 535922410 431981407"/>
    </vehicle>
    <vehicle id="roi_trip_25" type="veh_passenger" depart="642.86">
        <route edges="1205679702#0 -1205679702#0 24160007#1 24160007#2 431981408#1 431981408#2 238875364#0 238875364#1 238875364#2 24683519#0 24683519#1 431994306 -80477039#1 -80477039#0 -422425537#1 -422425537#0 24683514#0 24683514#1 431827297#0 431827297#1 431827297#2 431827297#3 314066417 895708421 431989326 1168273992 1168273992-AddedOffRampEdge"/>
    </vehicle>
    <vehicle id="roi_trip_26" type="veh_passenger" depart="668.57">
        <route edges="24160007#1 24160007#2 431981408#1 431981408#2 238875364#0 238875364#1 238875364#2 24683519#0 24683519#1 431994306 -80477039#1 -80477039#0 -422425537#1 -422425537#0 24683514#0 24683514#1 431827297#0 431827297#1 431827297#2 431827297#3 314066417 895708421 431989326 24160009 535922410-AddedOnRampEdge 535922410 24160011"/>
    </vehicle>
    <vehicle id="roi_trip_27" type="veh_passenger" depart="694.29">
        <route edges="1205679702#0 -1205679702#0 24160007#1 24160007#2 431981408#1 431981408#2 238875364#0 238875364#1 238875364#2 24683519#0 24683519#1 431994306 -80477039#1 -80477039#0 -422425537#1 -422425537#0 24683514#0 24683514#1 431827297#0 431827297#1 431827297#2 431827297#3 314066417 895708421 431989326 24160009 535922410-AddedOnRampEdge 535922410 24160011 535922409 24160010 541024817 83002985 1163917760 25042886"/>
    </vehicle>
    <vehicle id="roi_trip_28" type="veh_passenger" depart="720.00">
        <route edges="1205679702#0 -1205679702#0 24160007#1"/>
    </vehicle>
    <vehicle id="roi_trip_29" type="veh_passenger" depart="745.71">
        <route edges="-1205679702#1 -1205679702#0 24160007#1 24160007#2 431981408#1 431981408#2 238875364#0 238875364#1 238875364#2 24683519#0 24683519#1 431994306 -80477039#1 -80477039#0 -422425537#1 -422425537#0 24683514#0 24683514#1 431827297#0 431827297#1 431827297#2 431827297#3 199885792 428326182"/>
    </vehicle>
    <vehicle id="roi_trip_30" type="veh_passenger" depart="771.43">
        <route edges="24160007#0 24160007#1"/>
    </vehicle>
    <vehicle id="roi_trip_31" type="veh_passenger" depart="797.14">
        <route edges="199885792 428326182 314066418-AddedOnRampEdge 314066418 535572607 83002986 535574528 893289558 462693003 238875365 1168109380 535922409 431981408#0 431981408#1 431981408#2 238875364#0 238875364#1 238875364#2 24683519#0 24683519#1 431994306 431775779 431775778 431827300#0 24683535#3 24683536 948224714 -948224715 -948224713 -24791336#1 -24791336#0 -24791335#5 -24791335#4 -24791335#3 -24791335#2 -24791335#1 -24791335#0 424685850#1 535566666#1 314066421 314066421-AddedOffRampEdge 24160007#0 1205679702#0 1205679702#1 -1205679702#1"/>
    </vehicle>
    <vehicle id="roi_trip_32" type="veh_passenger" depart="822.86">
        <route edges="1168283956 535922410-AddedOnRampEdge 535922410 24160011 535922409 431981408#0 431981408#1 431981408#2 238875364#0 238875364#1 238875364#2 24683519#0 24683519#1 431994306 -80477039#1 -80477039#0 -422425537#1 -422425537#0 24683514#0 24683514#1 431827297#0 431827297#1 431827297#2 431827297#3 314066417 24160012#0 24160012#1"/>
    </vehicle>
    <vehicle id="roi_trip_33" type="veh_passenger" depart="848.57">
        <route edges="98246932 535554959#0 -854227939 -854227942 -507058716 -25046412#6 199881960#0 1175651171 507058717#0 507058717#1 25042889#11 98246921 1168283956 535922410-AddedOnRampEdge 535922410 24160011 535922409 24160010 541024817 83002985 1163917760 24160008"/>
    </vehicle>
    <vehicle id="roi_trip_34" type="veh_passenger" depart="874.29">
        <route edges="24160011 535922409 24160010 541024817 83002985 1163917760 24160008 431989326 1168273992 1168273992-AddedOffRampEdge 314066419 314066418-AddedOnRampEdge 314066418 535572607 83002986 535574528 893289558 462693003 199885791"/>
    </vehicle>
    <vehicle id="roi_trip_35" type="veh_passenger" depart="900.00">
        <route edges="1168283956 535922410-AddedOnRampEdge 535922410 24160011 535922409 24160010"/>
    </vehicle>
    <vehicle id="roi_trip_36" type="veh_passenger" depart="925.71">
        <route edges="431981408#0 431981408#1 431981408#2 238875364#0 238875364#1 238875364#2 24683519#0 24683519#1 431994306 431775779 431775778 431827300#0 24683535#3 24683536 948224714 -948224715 -948224713 -24791336#1 -24791336#0 -24791335#5 -24791335#4 -24791335#3 -24791335#2 -24791335#1 -24791335#0 424685850#1 535566666#1 98246932"/>
    </vehicle>
    <vehicle id="roi_trip_37" type="veh_passenger" depart="951.43">
        <route edges="-1205679702#1 -1205679702#0 24160007#1 24160007#2 431981408#1 431981408#2 238875364#0 238875364#1 238875364#2 24683519#0 24683519#1 431994306 -80477039#1 -80477039#0 -422425537#1 -422425537#0 24683514#0 24683514#1 431827297#0 431827297#1 431827297#2 431827297#3 314066417 24160012#0 24160012#1 98246952 535554959#0 -854227939 -854227942 -507058716 -25046412#6 199881960#0 1175651171 507058717#0 507058717#1 25042889#11 423997744"/>
    </vehicle>
    <vehicle id="roi_trip_38" type="veh_passenger" depart="977.14">
        <route edges="1168273992-AddedOffRampEdge 1163917761 422730660#0-AddedOnRampEdge 422730660#0 -24405514#2 -24405514#1 -24405514#0 24405513 -24405507#5 -24405507#4 -24405507#3 -24405507#2 -24405507#1 -24405507#0 -1168305905#2 -1168305905#1 25046412#1 25046412#2 25046412#3 25046412#4 25046412#5 199881960#0 1175651171 507058717#0 507058717#1 25042889#11 98246921 1168283956 535922410-AddedOnRampEdge"/>
    </vehicle>
    <vehicle id="roi_trip_39" type="veh_passenger" depart="1002.86">
        <route edges="535922410 24160011"/>
    </vehicle>
    <vehicle id="roi_trip_40" type="veh_passenger" depart="1028.57">
        <route edges="-1205679702#1 -1205679702#0 24160007#1 24160007#2 431981408#1 431981408#2 238875364#0 238875364#1 238875364#2 24683519#0 24683519#1 431994306 -80477039#1 -80477039#0 -422425537#1 -422425537#0 24683514#0 24683514#1 431827297#0 431827297#1 431827297#2 431827297#3 314066417 895708421 431989326 24160009 535922410-AddedOnRampEdge 535922410 24160011 535922409 431981408#0"/>
    </vehicle>
    <vehicle id="roi_trip_41" type="veh_passenger" depart="1054.29">
        <route edges="24160011 535922409 431981408#0 431981408#1 431981408#2 238875364#0 238875364#1 238875364#2 24683519#0 24683519#1 431994306 431775779 431775778 431827300#0 24683535#3 24683536 948224714 -948224715 -948224713 -24791336#1 -24791336#0 -24791335#5 -24791335#4 -24791335#3 -24791335#2 -24791335#1 -24791335#0 424685850#1 535566666#1 314066421 314066421-AddedOffRampEdge 24160020"/>
    </vehicle>
    <vehicle id="roi_trip_42" type="veh_passenger" depart="1080.00">
        <route edges="431981408#0 431981408#1 431981408#2 238875364#0 238875364#1 238875364#2 24683519#0 24683519#1 431994306 -80477039#1 -80477039#0 -422425537#1 -422425537#0 24683514#0 24683514#1 431827297#0 431827297#1 431827297#2 431827297#3 314066417 895708421 431989326 24160009 535922410-AddedOnRampEdge 535922410 24160011 535922409 24160010 541024817 83002985 1163917760"/>
    </vehicle>
    <vehicle id="roi_trip_43" type="veh_passenger" depart="1105.71">
        <route edges="1205679702#0 -1205679702#0 24160007#1 24160007#2 431981408#1 431981408#2 238875364#0 238875364#1 238875364#2 24683519#0 24683519#1 431994306 -80477039#1 -80477039#0 -422425537#1 -422425537#0 24683514#0 24683514#1 431827297#0 431827297#1 431827297#2 431827297#3 314066417 895708421 431989326 24160009 535922410-AddedOnRampEdge 535922410"/>
    </vehicle>
    <vehicle id="roi_trip_44" type="veh_passenger" depart="1131.43">
        <route edges="24160007#1 24160007#2 431981408#1 431981408#2 238875364#0 238875364#1 238875364#2 24683519#0 24683519#1 431994306 431775779 431775778 431827300#0 24683535#3 24683536 948224714 -948224715 -948224713 -24791336#1 -24791336#0 -24791335#5 -24791335#4 -24791335#3 -24791335#2 -24791335#1 -24791335#0 424685850#1 535566666#1 314066421 314066421-AddedOffRampEdge 24160007#0 1205679702#0 1205679702#1"/>
    </vehicle>
    <vehicle id="roi_trip_45" type="veh_passenger" depart="1157.14">
        <route edges="24160009 535922410-AddedOnRampEdge 535922410 24160011 535922409 24160010 541024817 83002985 1163917760 25042886 98246952 535554959#0 -854227939 -854227942 -507058716 -25046412#6 199881960#0 1175651171 507058717#0 507058717#1 25042889#11 98246921 1168283956"/>
    </vehicle>
    <vehicle id="roi_trip_46" type="veh_passenger" depart="1182.86">
        <route edges="24160007#1 24160007#2 431981408#1 431981408#2 238875364#0 238875364#1 238875364#2 24683519#0 24683519#1 431994306 431775779 431775778 431827300#0 24683535#3 24683536 948224714 -948224715 -948224713 -24791336#1 -24791336#0 -24791335#5 -24791335#4 -24791335#3 -24791335#2 -24791335#1 -24791335#0 424685850#1 535566666#1 314066421 314066421-AddedOffRampEdge 24160007#0 1205679702#0 1205679702#1"/>
    </vehicle>
    <vehicle id="roi_trip_47" type="veh_passenger" depart="1208.57">
        <route edges="-1205679702#1 -1205679702#0 24160007#1 24160007#2 431981408#1 431981408#2 238875364#0 238875364#1 238875364#2 24683519#0 24683519#1 431994306 -80477039#1 -80477039#0 -422425537#1 -422425537#0 24683514#0 24683514#1 431827297#0 431827297#1 431827297#2 431827297#3 314066417 895708421 431989326 24160009 535922410-AddedOnRampEdge"/>
    </vehicle>
    <vehicle id="roi_trip_48" type="veh_passenger" depart="1234.29">
        <route edges="199885792 428326182 314066418-AddedOnRampEdge 314066418 535572607 83002986 535574528 893289558 462693003 238875365 1168109380 535922409"/>
    </vehicle>
    <vehicle id="roi_trip_49" type="veh_passenger" depart="1260.00">
        <route edges="1168273992-AddedOffRampEdge 314066419 314066418-AddedOnRampEdge 314066418 535572607 83002986 535574528 893289558 462693003 238875365 1168109380 535922409 431981408#0 431981408#1 431981408#2 238875364#0 238875364#1 238875364#2 24683519#0 24683519#1 431994306 -80477039#1 -80477039#0 -422425537#1 -422425537#0 24683514#0 24683514#1 431827297#0 431827297#1 431827297#2 431827297#3 199885792 428326182"/>
    </vehicle>
    <vehicle id="roi_trip_50" type="veh_passenger" depart="1285.71">
        <route edges="24160007#2 431981408#1 431981408#2 238875364#0 238875364#1 238875364#2 24683519#0 24683519#1 431994306 -80477039#1 -80477039#0 -422425537#1 -422425537#0 24683514#0 24683514#1 431827297#0 431827297#1 431827297#2 431827297#3 314066417 895708421 431989326 24160009 535922410-AddedOnRampEdge 535922410 24160011"/>
    </vehicle>
    <vehicle id="roi_trip_51" type="veh_passenger" depart="1311.43">
        <route edges="24160012#1 98246952 535554959#0 -854227939 -276636146#6 -276636146#5 534900635#0 534900635#1 -24683515#2 -24683515#1 -874437282 24683513 422425537#0 422425537#1 422425537#2 80477039#1 431775779 431775778 431827300#0 24683535#3 24683536 948224714 -948224715 -948224713 -24791336#1 -24791336#0 -24791335#5 -24791335#4 -24791335#3 -24791335#2 -24791335#1 -24791335#0 424685850#1 535566666#1 314066421 314066421-AddedOffRampEdge 24160007#0 24160007#1 24160007#2"/>
    </vehicle>
    <vehicle id="roi_trip_52" type="veh_passenger" depart="1337.14">
        <route edges="24160007#1 24160007#2 431981408#1 431981408#2 238875364#0 238875364#1 238875364#2 24683519#0 24683519#1 431994306 -80477039#1 -80477039#0 -422425537#1 -422425537#0 24683514#0 24683514#1 431827297#0 431827297#1 431827297#2 431827297#3 314066417 895708421 431989326 24160009 535922410-AddedOnRampEdge 535922410 24160011 535922409 24160010 541024817 83002985 1163917760"/>
    </vehicle>
    <vehicle id="roi_trip_53" type="veh_passenger" depart="1362.86">
        <route edges="431981407 535910625#0 -24683612#2 24405520#1 24405520#2 -24405522#1 -24405522#0 1168126740 854227946#4 -24405502#3 -24405502#2 -24405502#1 -24405502#0 893289558 462693003 238875365 1168109380 535922409 24160010 541024817 83002985 1163917760 24160008 431989326 24160009 535922410-AddedOnRampEdge 535922410 24160011"/>
    </vehicle>
    <vehicle id="roi_trip_54" type="veh_passenger" depart="1388.57">
        <route edges="423997744 541024816 535566679#0 535566679#1 535566679#1-AddedOffRampEdge 314066420#1 314066420#2 25054142#0 25054142#1 -25054140 25054138#2 -25054139 854227946#3 854227946#4 -24405502#3 -24405502#2 -24405502#1 -24405502#0 893289558 462693003 238875365 1168109380 535922409 431981408#0 431981408#1 431981408#2 238875364#0 238875364#1 238875364#2 24683519#0 24683519#1 431994306 -80477039#1 -80477039#0 -422425537#1 -422425537#0 24683514#0 24683514#1 431827297#0 431827297#1 431827297#2 431827297#3 199885792"/>
    </vehicle>
    <vehicle id="roi_trip_55" type="veh_passenger" depart="1414.29">
        <route edges="-1205679702#1 -1205679702#0 24160007#1 24160007#2 431981408#1 431981408#2 238875364#0 238875364#1 238875364#2 24683519#0 24683519#1 431994306 -80477039#1 -80477039#0 -422425537#1 -422425537#0 24683514#0 24683514#1 431827297#0 431827297#1 431827297#2 431827297#3 314066417 895708421 431989326 1168273992 1168273992-AddedOffRampEdge"/>
    </vehicle>
    <vehicle id="roi_trip_56" type="veh_passenger" depart="1440.00">
        <route edges="1163917760 24160008 431989326 24160009 535922410-AddedOnRampEdge 535922410 24160011 535922409 431981408#0 431981408#1 431981408#2 238875364#0 238875364#1 238875364#2 24683519#0 24683519#1 431994306 431775779 431775778 431827300#0 24683535#3 24683536 948224714 -948224715 -948224713 -24791336#1 -24791336#0 -24791335#5 -24791335#4 -24791335#3 -24791335#2 -24791335#1 -24791335#0 424685850#1 535566666#1 314066421 314066421-AddedOffRampEdge"/>
    </vehicle>
    <vehicle id="roi_trip_57" type="veh_passenger" depart="1465.71">
        <route edges="24160009 535922410-AddedOnRampEdge 535922410 431981407 535910625#0 -24683612#2 24405520#1 24405520#2 -24405522#1 -24405522#0 1168126740 854227946#4 -24405502#3 -24405502#2 -24405502#1 -24405502#0 893289558 462693003 238875365 1168109380"/>
    </vehicle>
    <vehicle id="roi_trip_58" type="veh_passenger" depart="1491.43">
        <route edges="24160012#1 98246952 535554959#0 -854227939 -276636146#6 -276636146#5 534900635#0 534900635#1 -24683515#2 -24683515#1 -874437282 24683513 422425537#0 422425537#1 422425537#2 80477039#1 431775779 431775778 431827300#0 24683535#3 24683536 948224714 -948224715 -948224713 -24791336#1 -24791336#0 -24791335#5 -24791335#4 -24791335#3 -24791335#2 -24791335#1 -24791335#0 424685850#1 535566666#1 314066421 314066421-AddedOffRampEdge 24160007#0 1205679702#0 -1205679702#0"/>
    </vehicle>
    <vehicle id="roi_trip_59" type="veh_passenger" depart="1517.14">
        <route edges="24160020 541024817 83002985 1163917760 24160008 431989326 1168273992 1168273992-AddedOffRampEdge 314066419 314066418-AddedOnRampEdge 314066418 535572607 83002986 535574528 893289558 462693003 199885791"/>
    </vehicle>
    <vehicle id="roi_trip_60" type="veh_passenger" depart="1542.86">
        <route edges="1205679702#0 -1205679702#0 24160007#1 24160007#2 431981408#1 431981408#2 238875364#0 238875364#1 238875364#2 24683519#0 24683519#1 431994306 -80477039#1 -80477039#0 -422425537#1 -422425537#0 24683514#0 24683514#1 431827297#0 431827297#1 431827297#2 431827297#3 314066417 895708421 431989326 24160009 535922410-AddedOnRampEdge 535922410 24160011 535922409 24160010 541024817 83002985 1163917760 24160008"/>
    </vehicle>
    <vehicle id="roi_trip_61" type="veh_passenger" depart="1568.57">
        <route edges="431981407 535910625#0 -24683612#2 24405520#1 24405520#2 -24405522#1 -24405522#0 1168126740 854227946#4 -24405502#3 -24405502#2 -24405502#1 -24405502#0 893289558 462693003 238875365 1168109380"/>
    </vehicle>
    <vehicle id="roi_trip_62" type="veh_passenger" depart="1594.29">
        <route edges="431981408#0 431981408#1 431981408#2 238875364#0 238875364#1 238875364#2 24683519#0 24683519#1 431994306 -80477039#1 -80477039#0 -422425537#1 -422425537#0 24683514#0 24683514#1 431827297#0 431827297#1 431827297#2 431827297#3 314066417 895708421 431989326 24160009"/>
    </vehicle>
    <vehicle id="roi_trip_63" type="veh_passenger" depart="1620.00">
        <route edges="535922409 24160010 541024817 83002985 1163917760 24160008 431989326 24160009 535922410-AddedOnRampEdge"/>
    </vehicle>
    <vehicle id="roi_trip_64" type="veh_passenger" depart="1645.71">
        <route edges="24160020 541024817 83002985 1163917760 25042886 98246952 535554959#0 -854227939 -276636146#6 -276636146#5 534900635#0 534900635#1 -24683515#2 -24683515#1 -24683515#0 431827298 535569424 431827297#0 431827297#1 431827297#2 431827297#3 199885792"/>
    </vehicle>
    <vehicle id="roi_trip_65" type="veh_passenger" depart="1671.43">
        <route edges="199885791 238875364#0 238875364#1 238875364#2 24683519#0 24683519#1 431994306 -80477039#1 -80477039#0 -422425537#1 -422425537#0 24683514#0 24683514#1 431827297#0 431827297#1 431827297#2 431827297#3 314066417 895708421"/>
    </vehicle>
    <vehicle id="roi_trip_66" type="veh_passenger" depart="1697.14">
        <route edges="199885791 238875364#0 238875364#1 238875364#2 24683519#0 24683519#1 431994306 -80477039#1 -80477039#0 -422425537#1 -422425537#0 24683514#0 24683514#1 431827297#0 431827297#1 431827297#2 431827297#3 314066417 895708421 431989326 24160009 535922410-AddedOnRampEdge 535922410 431981407"/>
    </vehicle>
    <vehicle id="roi_trip_67" type="veh_passenger" depart="1722.86">
        <route edges="199885792 428326182 314066418-AddedOnRampEdge 314066418 535572607 83002986 535574528 893289558 462693003 238875365 1168109380 535922409 24160010 541024817 83002985 1163917760"/>
    </vehicle>
    <vehicle id="roi_trip_68" type="veh_passenger" depart="1748.57">
        <route edges="24160007#2 431981408#1 431981408#2 238875364#0 238875364#1 238875364#2 24683519#0 24683519#1 431994306 -80477039#1 -80477039#0 -422425537#1 -422425537#0 24683514#0 24683514#1 431827297#0 431827297#1 431827297#2 431827297#3 314066417 895708421"/>
    </vehicle>
    <vehicle id="roi_trip_69" type="veh_passenger" depart="1774.29">
        <route edges="199885792 428326182 314066418-AddedOnRampEdge 314066418 535572607 83002986 535574528 893289558 462693003 238875365 1168109380 535922409 24160010 541024817 83002985 1163917760 24160008 431989326"/>
    </vehicle>
    <vehicle id="roi_trip_70" type="veh_passenger" depart="1800.00">
        <route edges="24160007#1 24160007#2 431981408#1 431981408#2 238875364#0 238875364#1 238875364#2 24683519#0 24683519#1 431994306 -80477039#1 -80477039#0 -422425537#1 -422425537#0 24683514#0 24683514#1 431827297#0 431827297#1 431827297#2 431827297#3 314066417 895708421 431989326 24160009 535922410-AddedOnRampEdge 535922410 24160011 535922409"/>
    </vehicle>
    <vehicle id="roi_trip_71" type="veh_passenger" depart="1825.71">
        <route edges="98246932 535554959#0 -854227939 -276636146#6 -276636146#5 534900635#0 534900635#1 -24683515#2 -24683515#1 -24683515#0 431827298 535569424 431827297#0 431827297#1 431827297#2 431827297#3 199885792"/>
    </vehicle>
    <vehicle id="roi_trip_72" type="veh_passenger" depart="1851.43">
        <route edges="1168283956 535922410-AddedOnRampEdge 535922410 24160011 535922409 24160010 541024817 83002985 1163917760 24160008 431989326 1168273992 1168273992-AddedOffRampEdge"/>
    </vehicle>
    <vehicle id="roi_trip_73" type="veh_passenger" depart="1877.14">
        <route edges="535922409 431981408#0 431981408#1 431981408#2 238875364#0 238875364#1 238875364#2 24683519#0 24683519#1 431994306 431775779 431775778 431827300#0 24683535#3 24683536 948224714 -948224715 -948224713 -24791336#1 -24791336#0 -24791335#5 -24791335#4 -24791335#3 -24791335#2 -24791335#1 -24791335#0 424685850#1 535566666#1 314066421 314066421-AddedOffRampEdge 24160007#0 1205679702#0 1205679702#1"/>
    </vehicle>
    <vehicle id="roi_trip_74" type="veh_passenger" depart="1902.86">