<?xml version='1.0' encoding='UTF-8'?>
<trips><trip id="roi_trip_0" type="veh_passenger" depart="0.0" from="199885791" to="25042886" /><trip id="roi_trip_1" type="veh_passenger" depart="22.5" from="-1205679702#0" to="423997744" /><trip id="roi_trip_2" type="veh_passenger" depart="45.0" from="24160020" to="1205679702#1" /><trip id="roi_trip_3" type="veh_passenger" depart="67.5" from="24160009" to="24160007#1" /><trip id="roi_trip_4" type="veh_passenger" depart="90.0" from="24160007#0" to="431981407" /><trip id="roi_trip_5" type="veh_passenger" depart="112.5" from="24160009" to="1163917760" /><trip id="roi_trip_6" type="veh_passenger" depart="135.0" from="1168283956" to="199885792" /><trip id="roi_trip_7" type="veh_passenger" depart="157.5" from="24160009" to="1205679702#0" /><trip id="roi_trip_8" type="veh_passenger" depart="180.0" from="24160007#2" to="24160009" /><trip id="roi_trip_9" type="veh_passenger" depart="202.5" from="1163917760" to="199885792" /><trip id="roi_trip_10" type="veh_passenger" depart="225.0" from="428326182" to="98246932" /><trip id="roi_trip_11" type="veh_passenger" depart="247.5" from="423997744" to="98246932" /><trip id="roi_trip_12" type="veh_passenger" depart="270.0" from="25042886" to="1168109380" /><trip id="roi_trip_13" type="veh_passenger" depart="292.5" from="199885791" to="25042886" /><trip id="roi_trip_14" type="veh_passenger" depart="315.0" from="24160011" to="895708421" /><trip id="roi_trip_15" type="veh_passenger" depart="337.5" from="24160008" to="1163917760" /><trip id="roi_trip_16" type="veh_passenger" depart="360.0" from="895708421" to="428326182" /><trip id="roi_trip_17" type="veh_passenger" depart="382.5" from="314066421-AddedOffRampEdge" to="1168273992-AddedOffRampEdge" /><trip id="roi_trip_18" type="veh_passenger" depart="405.0" from="314066421-AddedOffRampEdge" to="895708421" /><trip id="roi_trip_19" type="veh_passenger" depart="427.5" from="1205679702#1" to="24160010" /><trip id="roi_trip_20" type="veh_passenger" depart="450.0" from="-1205679702#1" to="1168283956" /><trip id="roi_trip_21" type="veh_passenger" depart="472.5" from="24160011" to="423997744" /><trip id="roi_trip_22" type="veh_passenger" depart="495.0" from="24160007#2" to="24160020" /><trip id="roi_trip_23" type="veh_passenger" depart="517.5" from="431981408#0" to="535922409" /><trip id="roi_trip_24" type="veh_passenger" depart="540.0" from="24160012#1" to="428326182" /><trip id="roi_trip_25" type="veh_passenger" depart="562.5" from="1168109380" to="24160020" /><trip id="roi_trip_26" type="veh_passenger" depart="585.0" from="24160007#2" to="431989326" /><trip id="roi_trip_27" type="veh_passenger" depart="607.5" from="24160007#0" to="24160010" /><trip id="roi_trip_28" type="veh_passenger" depart="630.0" from="535922410" to="423997744" /><trip id="roi_trip_29" type="veh_passenger" depart="652.5" from="535922410" to="199885792" /><trip id="roi_trip_30" type="veh_passenger" depart="675.0" from="431989326" to="24160020" /><trip id="roi_trip_31" type="veh_passenger" depart="697.5" from="-1205679702#1" to="535922409" /><trip id="roi_trip_32" type="veh_passenger" depart="720.0" from="1163917760" to="24160008" /><trip id="roi_trip_33" type="veh_passenger" depart="742.5" from="431989326" to="535922409" /><trip id="roi_trip_34" type="veh_passenger" depart="765.0" from="423997744" to="1168273992-AddedOffRampEdge" /><trip id="roi_trip_35" type="veh_passenger" depart="787.5" from="24160011" to="-1205679702#1" /><trip id="roi_trip_36" type="veh_passenger" depart="810.0" from="24160009" to="-1205679702#0" /><trip id="roi_trip_37" type="veh_passenger" depart="832.5" from="24160008" to="98246932" /><trip id="roi_trip_38" type="veh_passenger" depart="855.0" from="535922410-AddedOnRampEdge" to="24160008" /><trip id="roi_trip_39" type="veh_passenger" depart="877.5" from="1163917760" to="25042886" /><trip id="roi_trip_40" type="veh_passenger" depart="900.0" from="1205679702#1" to="1163917760" /><trip id="roi_trip_41" type="veh_passenger" depart="922.5" from="199885792" to="423997744" /><trip id="roi_trip_42" type="veh_passenger" depart="945.0" from="25042886" to="895708421" /><trip id="roi_trip_43" type="veh_passenger" depart="967.5" from="98246932" to="1168283956" /><trip id="roi_trip_44" type="veh_passenger" depart="990.0" from="24160020" to="895708421" /><trip id="roi_trip_45" type="veh_passenger" depart="1012.5" from="431981408#0" to="428326182" /><trip id="roi_trip_46" type="veh_passenger" depart="1035.0" from="428326182" to="314066421-AddedOffRampEdge" /><trip id="roi_trip_47" type="veh_passenger" depart="1057.5" from="24160020" to="24160007#2" /><trip id="roi_trip_48" type="veh_passenger" depart="1080.0" from="24160009" to="24160010" /><trip id="roi_trip_49" type="veh_passenger" depart="1102.5" from="199885792" to="895708421" /><trip id="roi_trip_50" type="veh_passenger" depart="1125.0" from="-1205679702#1" to="24160010" /><trip id="roi_trip_51" type="veh_passenger" depart="1147.5" from="-1205679702#1" to="1205679702#1" /><trip id="roi_trip_52" type="veh_passenger" depart="1170.0" from="199885791" to="1168109380" /><trip id="roi_trip_53" type="veh_passenger" depart="1192.5" from="1163917760" to="431981408#0" /><trip id="roi_trip_54" type="veh_passenger" depart="1215.0" from="535922409" to="428326182" /><trip id="roi_trip_55" type="veh_passenger" depart="1237.5" from="431981408#0" to="1168273992-AddedOffRampEdge" /><trip id="roi_trip_56" type="veh_passenger" depart="1260.0" from="535922409" to="1163917760" /><trip id="roi_trip_57" type="veh_passenger" depart="1282.5" from="199885791" to="1205679702#1" /><trip id="roi_trip_58" type="veh_passenger" depart="1305.0" from="24160009" to="98246932" /><trip id="roi_trip_59" type="veh_passenger" depart="1327.5" from="535922409" to="431989326" /><trip id="roi_trip_60" type="veh_passenger" depart="1350.0" from="1168273992-AddedOffRampEdge" to="431989326" /><trip id="roi_trip_61" type="veh_passenger" depart="1372.5" from="1168273992-AddedOffRampEdge" to="199885791" /><trip id="roi_trip_62" type="veh_passenger" depart="1395.0" from="895708421" to="1163917760" /><trip id="roi_trip_63" type="veh_passenger" depart="1417.5" from="535922410-AddedOnRampEdge" to="428326182" /><trip id="roi_trip_64" type="veh_passenger" depart="1440.0" from="895708421" to="535922410-AddedOnRampEdge" /><trip id="roi_trip_65" type="veh_passenger" depart="1462.5" from="199885791" to="24160010" /><trip id="roi_trip_66" type="veh_passenger" depart="1485.0" from="431981408#0" to="24160007#1" /><trip id="roi_trip_67" type="veh_passenger" depart="1507.5" from="24160007#2" to="535922410" /><trip id="roi_trip_68" type="veh_passenger" depart="1530.0" from="199885792" to="1168273992-AddedOffRampEdge" /><trip id="roi_trip_69" type="veh_passenger" depart="1552.5" from="24160012#1" to="431989326" /><trip id="roi_trip_70" type="veh_passenger" depart="1575.0" from="1168109380" to="-1205679702#0" /><trip id="roi_trip_71" type="veh_passenger" depart="1597.5" from="24160007#2" to="1205679702#1" /><trip id="roi_trip_72" type="veh_passenger" depart="1620.0" from="314066421-AddedOffRampEdge" to="535922409" /><trip id="roi_trip_73" type="veh_passenger" depart="1642.5" from="24160011" to="314066421-AddedOffRampEdge" /><trip id="roi_trip_74" type="veh_passenger" depart="1665.0" from="423997744" to="-1205679702#1" /><trip id="roi_trip_75" type="veh_passenger" depart="1687.5" from="895708421" to="1163917760" /><trip id="roi_trip_76" type="veh_passenger" depart="1710.0" from="24160007#2" to="1205679702#1" /><trip id="roi_trip_77" type="veh_passenger" depart="1732.5" from="25042886" to="895708421" /><trip id="roi_trip_78" type="veh_passenger" depart="1755.0" from="1168109380" to="199885791" /><trip id="roi_trip_79" type="veh_passenger" depart="1777.5" from="1168283956" to="314066421-AddedOffRampEdge" /><trip id="roi_trip_80" type="veh_passenger" depart="1800.0" from="25042886" to="535922410-AddedOnRampEdge" /><trip id="roi_trip_81" type="veh_passenger" depart="1822.5" from="431981407" to="24160007#0" /><trip id="roi_trip_82" type="veh_passenger" depart="1845.0" from="1168273992-AddedOffRampEdge" to="25042886" /><trip id="roi_trip_83" type="veh_passenger" depart="1867.5" from="24160009" to="24160007#0" /><trip id="roi_trip_84" type="veh_passenger" depart="1890.0" from="535922409" to="24160011" /><trip id="roi_trip_85" type="veh_passenger" depart="1912.5" from="24160007#1" to="24160012#1" /><trip id="roi_trip_86" type="veh_passenger" depart="1935.0" from="24160007#2" to="431989326" /><trip id="roi_trip_87" type="veh_passenger" depart="1957.5" from="535922410" to="431989326" /><trip id="roi_trip_88" type="veh_passenger" depart="1980.0" from="314066421-AddedOffRampEdge" to="1205679702#1" /><trip id="roi_trip_89" type="veh_passenger" depart="2002.5" from="431989326" to="1168273992-AddedOffRampEdge" /><trip id="roi_trip_90" type="veh_passenger" depart="2025.0" from="1205679702#1" to="24160009" /><trip id="roi_trip_91" type="veh_passenger" depart="2047.5" from="535922410-AddedOnRampEdge" to="431989326" /><trip id="roi_trip_92" type="veh_passenger" depart="2070.0" from="24160007#1" to="1168283956" /><trip id="roi_trip_93" type="veh_passenger" depart="2092.5" from="1205679702#0" to="199885792" /><trip id="roi_trip_94" type="veh_passenger" depart="2115.0" from="98246932" to="199885792" /><trip id="roi_trip_95" type="veh_passenger" depart="2137.5" from="1168109380" to="535922410" /><trip id="roi_trip_96" type="veh_passenger" depart="2160.0" from="535922410-AddedOnRampEdge" to="1205679702#0" /><trip id="roi_trip_97" type="veh_passenger" depart="2182.5" from="535922410-AddedOnRampEdge" to="24160012#1" /><trip id="roi_trip_98" type="veh_passenger" depart="2205.0" from="428326182" to="-1205679702#1" /><trip id="roi_trip_99" type="veh_passenger" depart="2227.5" from="431989326" to="314066421-AddedOffRampEdge" /><trip id="roi_trip_100" type="veh_passenger" depart="2250.0" from="24160020" to="24160011" /><trip id="roi_trip_101" type="veh_passenger" depart="2272.5" from="1205679702#0" to="314066421-AddedOffRampEdge" /><trip id="roi_trip_102" type="veh_passenger" depart="2295.0" from="535922410" to="-1205679702#0" /><trip id="roi_trip_103" type="veh_passenger" depart="2317.5" from="428326182" to="199885791" /><trip id="roi_trip_104" type="veh_passenger" depart="2340.0" from="-1205679702#0" to="431981408#0" /><trip id="roi_trip_105" type="veh_passenger" depart="2362.5" from="535922410" to="-1205679702#1" /><trip id="roi_trip_106" type="veh_passenger" depart="2385.0" from="24160012#1" to="24160008" /><trip id="roi_trip_107" type="veh_passenger" depart="2407.5" from="199885792" to="535922410-AddedOnRampEdge" /><trip id="roi_trip_108" type="veh_passenger" depart="2430.0" from="-1205679702#1" to="199885791" /><trip id="roi_trip_109" type="veh_passenger" depart="2452.5" from="24160007#1" to="25042886" /><trip id="roi_trip_110" type="veh_passenger" depart="2475.0" from="428326182" to="423997744" /><trip id="roi_trip_111" type="veh_passenger" depart="2497.5" from="24160012#1" to="1205679702#1" /><trip id="roi_trip_112" type="veh_passenger" depart="2520.0" from="25042886" to="199885791" /><trip id="roi_trip_113" type="veh_passenger" depart="2542.5" from="1205679702#1" to="1168109380" /><trip id="roi_trip_114" type="veh_passenger" depart="2565.0" from="-1205679702#1" to="423997744" /><trip id="roi_trip_115" type="veh_passenger" depart="2587.5" from="1168109380" to="895708421" /><trip id="roi_trip_116" type="veh_passenger" depart="2610.0" from="535922410" to="24160007#0" /><trip id="roi_trip_117" type="veh_passenger" depart="2632.5" from="24160007#0" to="314066421-AddedOffRampEdge" /><trip id="roi_trip_118" type="veh_passenger" depart="2655.0" from="24160011" to="1205679702#0" /><trip id="roi_trip_119" type="veh_passenger" depart="2677.5" from="199885791" to="24160020" /><trip id="roi_trip_120" type="veh_passenger" depart="2700.0" from="24160010" to="24160020" /><trip id="roi_trip_121" type="veh_passenger" depart="2722.5" from="535922409" to="314066421-AddedOffRampEdge" /><trip id="roi_trip_122" type="veh_passenger" depart="2745.0" from="1168283956" to="535922409" /><trip id="roi_trip_123" type="veh_passenger" depart="2767.5" from="24160009" to="24160007#1" /><trip id="roi_trip_124" type="veh_passenger" depart="2790.0" from="199885791" to="431981408#0" /><trip id="roi_trip_125" type="veh_passenger" depart="2812.5" from="423997744" to="1168283956" /><trip id="roi_trip_126" type="veh_passenger" depart="2835.0" from="24160012#1" to="431981407" /><trip id="roi_trip_127" type="veh_passenger" depart="2857.5" from="98246932" to="24160012#1" /><trip id="roi_trip_128" type="veh_passenger" depart="2880.0" from="1205679702#0" to="98246932" /><trip id="roi_trip_129" type="veh_passenger" depart="2902.5" from="1168283956" to="431981407" /><trip id="roi_trip_130" type="veh_passenger" depart="2925.0" from="199885792" to="895708421" /><trip id="roi_trip_131" type="veh_passenger" depart="2947.5" from="24160012#1" to="431989326" /><trip id="roi_trip_132" type="veh_passenger" depart="2970.0" from="24160009" to="24160011" /><trip id="roi_trip_133" type="veh_passenger" depart="2992.5" from="895708421" to="1168273992-AddedOffRampEdge" /><trip id="roi_trip_134" type="veh_passenger" depart="3015.0" from="24160008" to="24160007#1" /><trip id="roi_trip_135" type="veh_passenger" depart="3037.5" from="-1205679702#0" to="24160008" /><trip id="roi_trip_136" type="veh_passenger" depart="3060.0" from="535922410" to="24160007#2" /><trip id="roi_trip_137" type="veh_passenger" depart="3082.5" from="1168273992-AddedOffRampEdge" to="199885792" /><trip id="roi_trip_138" type="veh_passenger" depart="3105.0" from="535922409" to="431981407" /><trip id="roi_trip_139" type="veh_passenger" depart="3127.5" from="423997744" to="431989326" /><trip id="roi_trip_140" type="veh_passenger" depart="3150.0" from="-1205679702#1" to="24160009" /><trip id="roi_trip_141" type="veh_passenger" depart="3172.5" from="431981408#0" to="1168109380" /><trip id="roi_trip_142" type="veh_passenger" depart="3195.0" from="895708421" to="1168273992-AddedOffRampEdge" /><trip id="roi_trip_143" type="veh_passenger" depart="3217.5" from="1168283956" to="-1205679702#0" /><trip id="roi_trip_144" type="veh_passenger" depart="3240.0" from="423997744" to="24160012#1" /><trip id="roi_trip_145" type="veh_passenger" depart="3262.5" from="98246932" to="1168283956" /><trip id="roi_trip_146" type="veh_passenger" depart="3285.0" from="24160007#0" to="1168273992-AddedOffRampEdge" /><trip id="roi_trip_147" type="veh_passenger" depart="3307.5" from="24160010" to="535922409" /><trip id="roi_trip_148" type="veh_passenger" depart="3330.0" from="24160012#1" to="-1205679702#0" /><trip id="roi_trip_149" type="veh_passenger" depart="3352.5" from="-1205679702#0" to="895708421" /><trip id="roi_trip_150" type="veh_passenger" depart="3375.0" from="1163917760" to="428326182" /><trip id="roi_trip_151" type="veh_passenger" depart="3397.5" from="98246932" to="1205679702#0" /><trip id="roi_trip_152" type="veh_passenger" depart="3420.0" from="24160011" to="314066421-AddedOffRampEdge" /><trip id="roi_trip_153" type="veh_passenger" depart="3442.5" from="24160010" to="431981408#0" /><trip id="roi_trip_154" type="veh_passenger" depart="3465.0" from="1163917760" to="24160010" /><trip id="roi_trip_155" type="veh_passenger" depart="3487.5" from="24160020" to="1168109380" /><trip id="roi_trip_156" type="veh_passenger" depart="3510.0" from="24160010" to="24160008" /><trip id="roi_trip_157" type="veh_passenger" depart="3532.5" from="1168283956" to="535922410-AddedOnRampEdge" /><trip id="roi_trip_158" type="veh_passenger" depart="3555.0" from="24160010" to="24160008" /><trip id="roi_trip_159" type="veh_passenger" depart="3577.5" from="25042886" to="-1205679702#0" /></trips>