<?xml version="1.0" ?>
<trips>
  <trip id="roi_trip_0" type="veh_passenger" depart="0.0" from="24160009" to="423997744"/>
  <trip id="roi_trip_1" type="veh_passenger" depart="7.23" from="1168273992-AddedOffRampEdge" to="24160012#1"/>
  <trip id="roi_trip_2" type="veh_passenger" depart="14.46" from="431981407" to="24160012#1"/>
  <trip id="roi_trip_3" type="veh_passenger" depart="21.69" from="535922409" to="24160011"/>
  <trip id="roi_trip_4" type="veh_passenger" depart="28.92" from="1163917760" to="24160020"/>
  <trip id="roi_trip_5" type="veh_passenger" depart="36.14" from="428326182" to="535922410"/>
  <trip id="roi_trip_6" type="veh_passenger" depart="43.37" from="1163917760" to="-1205679702#1"/>
  <trip id="roi_trip_7" type="veh_passenger" depart="50.6" from="-1205679702#0" to="24160007#0"/>
  <trip id="roi_trip_8" type="veh_passenger" depart="57.83" from="24160007#0" to="24160010"/>
  <trip id="roi_trip_9" type="veh_passenger" depart="65.06" from="431981407" to="199885792"/>
  <trip id="roi_trip_10" type="veh_passenger" depart="72.29" from="24160011" to="423997744"/>
  <trip id="roi_trip_11" type="veh_passenger" depart="79.52" from="24160007#2" to="1168109380"/>
  <trip id="roi_trip_12" type="veh_passenger" depart="86.75" from="1205679702#0" to="24160011"/>
  <trip id="roi_trip_13" type="veh_passenger" depart="93.98" from="431981408#0" to="1205679702#0"/>
  <trip id="roi_trip_14" type="veh_passenger" depart="101.2" from="24160008" to="24160009"/>
  <trip id="roi_trip_15" type="veh_passenger" depart="108.43" from="24160009" to="199885791"/>
  <trip id="roi_trip_16" type="veh_passenger" depart="115.66" from="431981408#0" to="1168273992-AddedOffRampEdge"/>
  <trip id="roi_trip_17" type="veh_passenger" depart="122.89" from="199885791" to="423997744"/>
  <trip id="roi_trip_18" type="veh_passenger" depart="130.12" from="24160007#0" to="24160010"/>
  <trip id="roi_trip_19" type="veh_passenger" depart="137.35" from="423997744" to="431981408#0"/>
  <trip id="roi_trip_20" type="veh_passenger" depart="144.58" from="535922410-AddedOnRampEdge" to="24160010"/>
  <trip id="roi_trip_21" type="veh_passenger" depart="151.81" from="24160007#1" to="98246932"/>
  <trip id="roi_trip_22" type="veh_passenger" depart="159.04" from="24160007#1" to="535922409"/>
  <trip id="roi_trip_23" type="veh_passenger" depart="166.27" from="24160008" to="431989326"/>
  <trip id="roi_trip_24" type="veh_passenger" depart="173.49" from="24160010" to="1205679702#1"/>
  <trip id="roi_trip_25" type="veh_passenger" depart="180.72" from="24160020" to="24160012#1"/>
  <trip id="roi_trip_26" type="veh_passenger" depart="187.95" from="98246932" to="1168283956"/>
  <trip id="roi_trip_27" type="veh_passenger" depart="195.18" from="-1205679702#1" to="1205679702#1"/>
  <trip id="roi_trip_28" type="veh_passenger" depart="202.41" from="535922409" to="431981407"/>
  <trip id="roi_trip_29" type="veh_passenger" depart="209.64" from="24160011" to="-1205679702#1"/>
  <trip id="roi_trip_30" type="veh_passenger" depart="216.87" from="1168273992-AddedOffRampEdge" to="24160007#1"/>
  <trip id="roi_trip_31" type="veh_passenger" depart="224.1" from="1168283956" to="199885792"/>
  <trip id="roi_trip_32" type="veh_passenger" depart="231.33" from="25042886" to="24160012#1"/>
  <trip id="roi_trip_33" type="veh_passenger" depart="238.55" from="431989326" to="199885792"/>
  <trip id="roi_trip_34" type="veh_passenger" depart="245.78" from="24160008" to="24160011"/>
  <trip id="roi_trip_35" type="veh_passenger" depart="253.01" from="431989326" to="24160011"/>
  <trip id="roi_trip_36" type="veh_passenger" depart="260.24" from="-1205679702#1" to="1168283956"/>
  <trip id="roi_trip_37" type="veh_passenger" depart="267.47" from="-1205679702#0" to="199885791"/>
  <trip id="roi_trip_38" type="veh_passenger" depart="274.7" from="314066421-AddedOffRampEdge" to="24160007#1"/>
  <trip id="roi_trip_39" type="veh_passenger" depart="281.93" from="1163917760" to="-1205679702#0"/>
  <trip id="roi_trip_40" type="veh_passenger" depart="289.16" from="431981407" to="24160020"/>
  <trip id="roi_trip_41" type="veh_passenger" depart="296.39" from="24160020" to="423997744"/>
  <trip id="roi_trip_42" type="veh_passenger" depart="303.61" from="98246932" to="1205679702#1"/>
  <trip id="roi_trip_43" type="veh_passenger" depart="310.84" from="-1205679702#0" to="25042886"/>
  <trip id="roi_trip_44" type="veh_passenger" depart="318.07" from="1205679702#0" to="1168109380"/>
  <trip id="roi_trip_45" type="veh_passenger" depart="325.3" from="-1205679702#1" to="24160009"/>
  <trip id="roi_trip_46" type="veh_passenger" depart="332.53" from="1168283956" to="1168273992-AddedOffRampEdge"/>
  <trip id="roi_trip_47" type="veh_passenger" depart="339.76" from="431989326" to="98246932"/>
  <trip id="roi_trip_48" type="veh_passenger" depart="346.99" from="98246932" to="1168283956"/>
  <trip id="roi_trip_49" type="veh_passenger" depart="354.22" from="1168109380" to="1163917760"/>
  <trip id="roi_trip_50" type="veh_passenger" depart="361.45" from="24160008" to="24160012#1"/>
  <trip id="roi_trip_51" type="veh_passenger" depart="368.67" from="24160008" to="1168283956"/>
  <trip id="roi_trip_52" type="veh_passenger" depart="375.9" from="431981408#0" to="1205679702#1"/>
  <trip id="roi_trip_53" type="veh_passenger" depart="383.13" from="24160007#0" to="423997744"/>
  <trip id="roi_trip_54" type="veh_passenger" depart="390.36" from="24160011" to="24160009"/>
  <trip id="roi_trip_55" type="veh_passenger" depart="397.59" from="1168283956" to="1168273992-AddedOffRampEdge"/>
  <trip id="roi_trip_56" type="veh_passenger" depart="404.82" from="24160009" to="24160007#2"/>
  <trip id="roi_trip_57" type="veh_passenger" depart="412.05" from="199885792" to="1168109380"/>
  <trip id="roi_trip_58" type="veh_passenger" depart="419.28" from="535922409" to="98246932"/>
  <trip id="roi_trip_59" type="veh_passenger" depart="426.51" from="535922410-AddedOnRampEdge" to="428326182"/>
  <trip id="roi_trip_60" type="veh_passenger" depart="433.73" from="1168273992-AddedOffRampEdge" to="199885792"/>
  <trip id="roi_trip_61" type="veh_passenger" depart="440.96" from="314066421-AddedOffRampEdge" to="895708421"/>
  <trip id="roi_trip_62" type="veh_passenger" depart="448.19" from="1205679702#1" to="428326182"/>
  <trip id="roi_trip_63" type="veh_passenger" depart="455.42" from="423997744" to="24160007#2"/>
  <trip id="roi_trip_64" type="veh_passenger" depart="462.65" from="535922410" to="1168109380"/>
  <trip id="roi_trip_65" type="veh_passenger" depart="469.88" from="24160008" to="535922410-AddedOnRampEdge"/>
  <trip id="roi_trip_66" type="veh_passenger" depart="477.11" from="1168109380" to="431989326"/>
  <trip id="roi_trip_67" type="veh_passenger" depart="484.34" from="535922410" to="25042886"/>
  <trip id="roi_trip_68" type="veh_passenger" depart="491.57" from="199885791" to="24160020"/>
  <trip id="roi_trip_69" type="veh_passenger" depart="498.8" from="1205679702#1" to="431981408#0"/>
  <trip id="roi_trip_70" type="veh_passenger" depart="506.02" from="535922410-AddedOnRampEdge" to="535922409"/>
  <trip id="roi_trip_71" type="veh_passenger" depart="513.25" from="24160007#1" to="-1205679702#0"/>
  <trip id="roi_trip_72" type="veh_passenger" depart="520.48" from="431981407" to="24160007#0"/>
  <trip id="roi_trip_73" type="veh_passenger" depart="527.71" from="24160007#0" to="24160010"/>
  <trip id="roi_trip_74" type="veh_passenger" depart="534.94" from="-1205679702#0" to="1205679702#0"/>
  <trip id="roi_trip_75" type="veh_passenger" depart="542.17" from="428326182" to="-1205679702#0"/>
  <trip id="roi_trip_76" type="veh_passenger" depart="549.4" from="-1205679702#0" to="24160009"/>
  <trip id="roi_trip_77" type="veh_passenger" depart="556.63" from="24160009" to="431981407"/>
  <trip id="roi_trip_78" type="veh_passenger" depart="563.86" from="1163917760" to="428326182"/>
  <trip id="roi_trip_79" type="veh_passenger" depart="571.08" from="199885791" to="24160010"/>
  <trip id="roi_trip_80" type="veh_passenger" depart="578.31" from="1168273992-AddedOffRampEdge" to="535922410"/>
  <trip id="roi_trip_81" type="veh_passenger" depart="585.54" from="1205679702#0" to="431981408#0"/>
  <trip id="roi_trip_82" type="veh_passenger" depart="592.77" from="1205679702#0" to="1163917760"/>
  <trip id="roi_trip_83" type="veh_passenger" depart="600.0" from="24160007#1" to="431989326"/>
  <trip id="roi_trip_84" type="veh_passenger" depart="607.23" from="-1205679702#0" to="1168283956"/>
  <trip id="roi_trip_85" type="veh_passenger" depart="614.46" from="24160011" to="535922409"/>
  <trip id="roi_trip_86" type="veh_passenger" depart="621.69" from="428326182" to="24160010"/>
  <trip id="roi_trip_87" type="veh_passenger" depart="628.92" from="98246932" to="1205679702#0"/>
  <trip id="roi_trip_88" type="veh_passenger" depart="636.14" from="24160012#1" to="535922409"/>
  <trip id="roi_trip_89" type="veh_passenger" depart="643.37" from="24160012#1" to="431981407"/>
  <trip id="roi_trip_90" type="veh_passenger" depart="650.6" from="1168109380" to="199885792"/>
  <trip id="roi_trip_91" type="veh_passenger" depart="657.83" from="423997744" to="1168273992-AddedOffRampEdge"/>
  <trip id="roi_trip_92" type="veh_passenger" depart="665.06" from="423997744" to="199885792"/>
  <trip id="roi_trip_93" type="veh_passenger" depart="672.29" from="-1205679702#0" to="199885792"/>
  <trip id="roi_trip_94" type="veh_passenger" depart="679.52" from="25042886" to="24160010"/>
  <trip id="roi_trip_95" type="veh_passenger" depart="686.75" from="535922409" to="895708421"/>
  <trip id="roi_trip_96" type="veh_passenger" depart="693.98" from="-1205679702#1" to="895708421"/>
  <trip id="roi_trip_97" type="veh_passenger" depart="701.2" from="431981408#0" to="535922410-AddedOnRampEdge"/>
  <trip id="roi_trip_98" type="veh_passenger" depart="708.43" from="1168283956" to="431981407"/>
  <trip id="roi_trip_99" type="veh_passenger" depart="715.66" from="24160012#1" to="24160020"/>
  <trip id="roi_trip_100" type="veh_passenger" depart="722.89" from="1168283956" to="1168109380"/>
  <trip id="roi_trip_101" type="veh_passenger" depart="730.12" from="199885792" to="24160010"/>
  <trip id="roi_trip_102" type="veh_passenger" depart="737.35" from="24160012#1" to="431989326"/>
  <trip id="roi_trip_103" type="veh_passenger" depart="744.58" from="1163917760" to="535922410"/>
  <trip id="roi_trip_104" type="veh_passenger" depart="751.81" from="24160011" to="199885792"/>
  <trip id="roi_trip_105" type="veh_passenger" depart="759.04" from="1205679702#0" to="1168109380"/>
  <trip id="roi_trip_106" type="veh_passenger" depart="766.27" from="431981407" to="1205679702#0"/>
  <trip id="roi_trip_107" type="veh_passenger" depart="773.49" from="1205679702#1" to="535922409"/>
  <trip id="roi_trip_108" type="veh_passenger" depart="780.72" from="1163917760" to="-1205679702#0"/>
  <trip id="roi_trip_109" type="veh_passenger" depart="787.95" from="24160020" to="24160009"/>
  <trip id="roi_trip_110" type="veh_passenger" depart="795.18" from="98246932" to="24160007#2"/>
  <trip id="roi_trip_111" type="veh_passenger" depart="802.41" from="199885792" to="24160011"/>
  <trip id="roi_trip_112" type="veh_passenger" depart="809.64" from="24160009" to="24160007#2"/>
  <trip id="roi_trip_113" type="veh_passenger" depart="816.87" from="1205679702#1" to="25042886"/>
  <trip id="roi_trip_114" type="veh_passenger" depart="824.1" from="24160012#1" to="-1205679702#0"/>
  <trip id="roi_trip_115" type="veh_passenger" depart="831.33" from="1168273992-AddedOffRampEdge" to="1205679702#1"/>
  <trip id="roi_trip_116" type="veh_passenger" depart="838.55" from="1168283956" to="431981407"/>
  <trip id="roi_trip_117" type="veh_passenger" depart="845.78" from="1205679702#1" to="24160007#2"/>
  <trip id="roi_trip_118" type="veh_passenger" depart="853.01" from="1163917760" to="24160011"/>
  <trip id="roi_trip_119" type="veh_passenger" depart="860.24" from="199885792" to="24160008"/>
  <trip id="roi_trip_120" type="veh_passenger" depart="867.47" from="895708421" to="535922409"/>
  <trip id="roi_trip_121" type="veh_passenger" depart="874.7" from="24160007#0" to="25042886"/>
  <trip id="roi_trip_122" type="veh_passenger" depart="881.93" from="1163917760" to="431989326"/>
  <trip id="roi_trip_123" type="veh_passenger" depart="889.16" from="1163917760" to="199885791"/>
  <trip id="roi_trip_124" type="veh_passenger" depart="896.39" from="431989326" to="-1205679702#1"/>
  <trip id="roi_trip_125" type="veh_passenger" depart="903.61" from="314066421-AddedOffRampEdge" to="24160010"/>
  <trip id="roi_trip_126" type="veh_passenger" depart="910.84" from="199885791" to="24160009"/>
  <trip id="roi_trip_127" type="veh_passenger" depart="918.07" from="431981408#0" to="-1205679702#1"/>
  <trip id="roi_trip_128" type="veh_passenger" depart="925.3" from="98246932" to="431989326"/>
  <trip id="roi_trip_129" type="veh_passenger" depart="932.53" from="1205679702#1" to="1163917760"/>
  <trip id="roi_trip_130" type="veh_passenger" depart="939.76" from="1168273992-AddedOffRampEdge" to="25042886"/>
  <trip id="roi_trip_131" type="veh_passenger" depart="946.99" from="24160007#2" to="535922410-AddedOnRampEdge"/>
  <trip id="roi_trip_132" type="veh_passenger" depart="954.22" from="24160011" to="431981408#0"/>
  <trip id="roi_trip_133" type="veh_passenger" depart="961.45" from="24160011" to="1163917760"/>
  <trip id="roi_trip_134" type="veh_passenger" depart="968.67" from="1205679702#0" to="199885792"/>
  <trip id="roi_trip_135" type="veh_passenger" depart="975.9" from="24160011" to="24160007#0"/>
  <trip id="roi_trip_136" type="veh_passenger" depart="983.13" from="1168283956" to="25042886"/>
  <trip id="roi_trip_137" type="veh_passenger" depart="990.36" from="-1205679702#1" to="24160009"/>
  <trip id="roi_trip_138" type="veh_passenger" depart="997.59" from="431989326" to="431981408#0"/>
  <trip id="roi_trip_139" type="veh_passenger" depart="1004.82" from="199885792" to="24160010"/>
  <trip id="roi_trip_140" type="veh_passenger" depart="1012.05" from="535922410" to="431981408#0"/>
  <trip id="roi_trip_141" type="veh_passenger" depart="1019.28" from="24160008" to="199885791"/>
  <trip id="roi_trip_142" type="veh_passenger" depart="1026.51" from="24160008" to="24160012#1"/>
  <trip id="roi_trip_143" type="veh_passenger" depart="1033.73" from="895708421" to="1163917760"/>
  <trip id="roi_trip_144" type="veh_passenger" depart="1040.96" from="-1205679702#1" to="535922409"/>
  <trip id="roi_trip_145" type="veh_passenger" depart="1048.19" from="199885792" to="-1205679702#1"/>
  <trip id="roi_trip_146" type="veh_passenger" depart="1055.42" from="24160007#2" to="24160008"/>
  <trip id="roi_trip_147" type="veh_passenger" depart="1062.65" from="-1205679702#0" to="24160007#1"/>
  <trip id="roi_trip_148" type="veh_passenger" depart="1069.88" from="25042886" to="423997744"/>
  <trip id="roi_trip_149" type="veh_passenger" depart="1077.11" from="24160007#2" to="24160020"/>
  <trip id="roi_trip_150" type="veh_passenger" depart="1084.34" from="895708421" to="423997744"/>
  <trip id="roi_trip_151" type="veh_passenger" depart="1091.57" from="24160012#1" to="-1205679702#1"/>
  <trip id="roi_trip_152" type="veh_passenger" depart="1098.8" from="535922409" to="423997744"/>
  <trip id="roi_trip_153" type="veh_passenger" depart="1106.02" from="-1205679702#1" to="423997744"/>
  <trip id="roi_trip_154" type="veh_passenger" depart="1113.25" from="314066421-AddedOffRampEdge" to="24160007#2"/>
  <trip id="roi_trip_155" type="veh_passenger" depart="1120.48" from="431989326" to="535922410"/>
  <trip id="roi_trip_156" type="veh_passenger" depart="1127.71" from="24160010" to="1205679702#0"/>
  <trip id="roi_trip_157" type="veh_passenger" depart="1134.94" from="535922410-AddedOnRampEdge" to="1205679702#1"/>
  <trip id="roi_trip_158" type="veh_passenger" depart="1142.17" from="24160009" to="423997744"/>
  <trip id="roi_trip_159" type="veh_passenger" depart="1149.4" from="535922410" to="-1205679702#1"/>
  <trip id="roi_trip_160" type="veh_passenger" depart="1156.63" from="24160012#1" to="1168283956"/>
  <trip id="roi_trip_161" type="veh_passenger" depart="1163.86" from="24160012#1" to="314066421-AddedOffRampEdge"/>
  <trip id="roi_trip_162" type="veh_passenger" depart="1171.08" from="24160020" to="1168283956"/>
  <trip id="roi_trip_163" type="veh_passenger" depart="1178.31" from="431989326" to="24160009"/>
  <trip id="roi_trip_164" type="veh_passenger" depart="1185.54" from="895708421" to="423997744"/>
  <trip id="roi_trip_165" type="veh_passenger" depart="1192.77" from="1168283956" to="24160012#1"/>
  <trip id="roi_trip_166" type="veh_passenger" depart="1200.0" from="535922410" to="431989326"/>
  <trip id="roi_trip_167" type="veh_passenger" depart="1207.23" from="895708421" to="431981408#0"/>
  <trip id="roi_trip_168" type="veh_passenger" depart="1214.46" from="1205679702#1" to="25042886"/>
  <trip id="roi_trip_169" type="veh_passenger" depart="1221.69" from="428326182" to="895708421"/>
  <trip id="roi_trip_170" type="veh_passenger" depart="1228.92" from="431981407" to="24160011"/>
  <trip id="roi_trip_171" type="veh_passenger" depart="1236.14" from="199885791" to="535922409"/>
  <trip id="roi_trip_172" type="veh_passenger" depart="1243.37" from="24160011" to="25042886"/>
  <trip id="roi_trip_173" type="veh_passenger" depart="1250.6" from="24160020" to="1168273992-AddedOffRampEdge"/>
  <trip id="roi_trip_174" type="veh_passenger" depart="1257.83" from="24160009" to="25042886"/>
  <trip id="roi_trip_175" type="veh_passenger" depart="1265.06" from="1163917760" to="431981407"/>
  <trip id="roi_trip_176" type="veh_passenger" depart="1272.29" from="314066421-AddedOffRampEdge" to="535922410-AddedOnRampEdge"/>
  <trip id="roi_trip_177" type="veh_passenger" depart="1279.52" from="24160012#1" to="24160007#0"/>
  <trip id="roi_trip_178" type="veh_passenger" depart="1286.75" from="1168273992-AddedOffRampEdge" to="24160008"/>
  <trip id="roi_trip_179" type="veh_passenger" depart="1293.98" from="1205679702#0" to="431981407"/>
  <trip id="roi_trip_180" type="veh_passenger" depart="1301.2" from="1168273992-AddedOffRampEdge" to="199885792"/>
  <trip id="roi_trip_181" type="veh_passenger" depart="1308.43" from="24160009" to="423997744"/>
  <trip id="roi_trip_182" type="veh_passenger" depart="1315.66" from="535922410" to="24160009"/>
  <trip id="roi_trip_183" type="veh_passenger" depart="1322.89" from="895708421" to="98246932"/>
  <trip id="roi_trip_184" type="veh_passenger" depart="1330.12" from="1205679702#1" to="535922410"/>
  <trip id="roi_trip_185" type="veh_passenger" depart="1337.35" from="199885792" to="423997744"/>
  <trip id="roi_trip_186" type="veh_passenger" depart="1344.58" from="199885791" to="25042886"/>
  <trip id="roi_trip_187" type="veh_passenger" depart="1351.81" from="1163917760" to="1168109380"/>
  <trip id="roi_trip_188" type="veh_passenger" depart="1359.04" from="98246932" to="25042886"/>
  <trip id="roi_trip_189" type="veh_passenger" depart="1366.27" from="24160012#1" to="24160010"/>
  <trip id="roi_trip_190" type="veh_passenger" depart="1373.49" from="431989326" to="25042886"/>
  <trip id="roi_trip_191" type="veh_passenger" depart="1380.72" from="24160011" to="24160010"/>
  <trip id="roi_trip_192" type="veh_passenger" depart="1387.95" from="199885791" to="1163917760"/>
  <trip id="roi_trip_193" type="veh_passenger" depart="1395.18" from="1205679702#0" to="199885792"/>
  <trip id="roi_trip_194" type="veh_passenger" depart="1402.41" from="431981408#0" to="431981407"/>
  <trip id="roi_trip_195" type="veh_passenger" depart="1409.64" from="1168273992-AddedOffRampEdge" to="24160012#1"/>
  <trip id="roi_trip_196" type="veh_passenger" depart="1416.87" from="24160010" to="1168109380"/>
  <trip id="roi_trip_197" type="veh_passenger" depart="1424.1" from="199885791" to="1168283956"/>
  <trip id="roi_trip_198" type="veh_passenger" depart="1431.33" from="98246932" to="25042886"/>
  <trip id="roi_trip_199" type="veh_passenger" depart="1438.55" from="24160010" to="199885791"/>
  <trip id="roi_trip_200" type="veh_passenger" depart="1445.78" from="24160010" to="24160008"/>
  <trip id="roi_trip_201" type="veh_passenger" depart="1453.01" from="-1205679702#0" to="314066421-AddedOffRampEdge"/>
  <trip id="roi_trip_202" type="veh_passenger" depart="1460.24" from="1168273992-AddedOffRampEdge" to="1168109380"/>
  <trip id="roi_trip_203" type="veh_passenger" depart="1467.47" from="1168283956" to="24160007#0"/>
  <trip id="roi_trip_204" type="veh_passenger" depart="1474.7" from="24160007#2" to="1168273992-AddedOffRampEdge"/>
  <trip id="roi_trip_205" type="veh_passenger" depart="1481.93" from="1163917760" to="199885792"/>
  <trip id="roi_trip_206" type="veh_passenger" depart="1489.16" from="-1205679702#0" to="98246932"/>
  <trip id="roi_trip_207" type="veh_passenger" depart="1496.39" from="1168109380" to="24160007#1"/>
  <trip id="roi_trip_208" type="veh_passenger" depart="1503.61" from="98246932" to="24160007#0"/>
  <trip id="roi_trip_209" type="veh_passenger" depart="1510.84" from="199885791" to="1168283956"/>
  <trip id="roi_trip_210" type="veh_passenger" depart="1518.07" from="1205679702#0" to="535922410"/>
  <trip id="roi_trip_211" type="veh_passenger" depart="1525.3" from="25042886" to="24160007#1"/>
  <trip id="roi_trip_212" type="veh_passenger" depart="1532.53" from="98246932" to="25042886"/>
  <trip id="roi_trip_213" type="veh_passenger" depart="1539.76" from="199885792" to="24160007#2"/>
  <trip id="roi_trip_214" type="veh_passenger" depart="1546.99" from="431989326" to="-1205679702#0"/>
  <trip id="roi_trip_215" type="veh_passenger" depart="1554.22" from="423997744" to="24160011"/>
  <trip id="roi_trip_216" type="veh_passenger" depart="1561.45" from="-1205679702#1" to="431981407"/>
  <trip id="roi_trip_217" type="veh_passenger" depart="1568.67" from="1205679702#1" to="1168109380"/>
  <trip id="roi_trip_218" type="veh_passenger" depart="1575.9" from="1168109380" to="-1205679702#1"/>
  <trip id="roi_trip_219" type="veh_passenger" depart="1583.13" from="-1205679702#1" to="1205679702#1"/>
  <trip id="roi_trip_220" type="veh_passenger" depart="1590.36" from="1168109380" to="428326182"/>
  <trip id="roi_trip_221" type="veh_passenger" depart="1597.59" from="24160020" to="423997744"/>
  <trip id="roi_trip_222" type="veh_passenger" depart="1604.82" from="199885791" to="25042886"/>
  <trip id="roi_trip_223" type="veh_passenger" depart="1612.05" from="1168273992-AddedOffRampEdge" to="199885791"/>
  <trip id="roi_trip_224" type="veh_passenger" depart="1619.28" from="535922410" to="-1205679702#1"/>
  <trip id="roi_trip_225" type="veh_passenger" depart="1626.51" from="24160011" to="-1205679702#1"/>
  <trip id="roi_trip_226" type="veh_passenger" depart="1633.73" from="535922410-AddedOnRampEdge" to="431989326"/>
  <trip id="roi_trip_227" type="veh_passenger" depart="1640.96" from="431981408#0" to="535922410"/>
  <trip id="roi_trip_228" type="veh_passenger" depart="1648.19" from="431989326" to="535922410-AddedOnRampEdge"/>
  <trip id="roi_trip_229" type="veh_passenger" depart="1655.42" from="1205679702#1" to="24160008"/>
  <trip id="roi_trip_230" type="veh_passenger" depart="1662.65" from="24160008" to="25042886"/>
  <trip id="roi_trip_231" type="veh_passenger" depart="1669.88" from="24160007#1" to="24160020"/>
  <trip id="roi_trip_232" type="veh_passenger" depart="1677.11" from="895708421" to="314066421-AddedOffRampEdge"/>
  <trip id="roi_trip_233" type="veh_passenger" depart="1684.34" from="1205679702#1" to="431981407"/>
  <trip id="roi_trip_234" type="veh_passenger" depart="1691.57" from="-1205679702#1" to="1168283956"/>
  <trip id="roi_trip_235" type="veh_passenger" depart="1698.8" from="1168109380" to="199885791"/>
  <trip id="roi_trip_236" type="veh_passenger" depart="1706.02" from="24160007#0" to="431981408#0"/>
  <trip id="roi_trip_237" type="veh_passenger" depart="1713.25" from="-1205679702#1" to="428326182"/>
  <trip id="roi_trip_238" type="veh_passenger" depart="1720.48" from="431981408#0" to="24160007#0"/>
  <trip id="roi_trip_239" type="veh_passenger" depart="1727.71" from="25042886" to="428326182"/>
  <trip id="roi_trip_240" type="veh_passenger" depart="1734.94" from="24160011" to="1205679702#0"/>
  <trip id="roi_trip_241" type="veh_passenger" depart="1742.17" from="-1205679702#1" to="431981407"/>
  <trip id="roi_trip_242" type="veh_passenger" depart="1749.4" from="1168109380" to="431981407"/>
  <trip id="roi_trip_243" type="veh_passenger" depart="1756.63" from="428326182" to="24160020"/>
  <trip id="roi_trip_244" type="veh_passenger" depart="1763.86" from="1205679702#0" to="1168109380"/>
  <trip id="roi_trip_245" type="veh_passenger" depart="1771.08" from="428326182" to="24160020"/>
  <trip id="roi_trip_246" type="veh_passenger" depart="1778.31" from="535922409" to="431989326"/>
  <trip id="roi_trip_247" type="veh_passenger" depart="1785.54" from="-1205679702#1" to="1205679702#0"/>
  <trip id="roi_trip_248" type="veh_passenger" depart="1792.77" from="24160020" to="24160012#1"/>
  <trip id="roi_trip_249" type="veh_passenger" depart="1800.0" from="-1205679702#1" to="431981407"/>
  <trip id="roi_trip_250" type="veh_passenger" depart="1807.23" from="-1205679702#1" to="1163917760"/>
  <trip id="roi_trip_251" type="veh_passenger" depart="1814.46" from="535922409" to="431981408#0"/>
  <trip id="roi_trip_252" type="veh_passenger" depart="1821.69" from="895708421" to="199885791"/>
  <trip id="roi_trip_253" type="veh_passenger" depart="1828.92" from="24160007#1" to="1163917760"/>
  <trip id="roi_trip_254" type="veh_passenger" depart="1836.14" from="24160007#1" to="535922409"/>
  <trip id="roi_trip_255" type="veh_passenger" depart="1843.37" from="431981408#0" to="428326182"/>
  <trip id="roi_trip_256" type="veh_passenger" depart="1850.6" from="-1205679702#0" to="24160010"/>
  <trip id="roi_trip_257" type="veh_passenger" depart="1857.83" from="-1205679702#1" to="-1205679702#0"/>
  <trip id="roi_trip_258" type="veh_passenger" depart="1865.06" from="24160010" to="431989326"/>
  <trip id="roi_trip_259" type="veh_passenger" depart="1872.29" from="535922410" to="431981407"/>
  <trip id="roi_trip_260" type="veh_passenger" depart="1879.52" from="24160020" to="1168109380"/>
  <trip id="roi_trip_261" type="veh_passenger" depart="1886.75" from="1168109380" to="98246932"/>
  <trip id="roi_trip_262" type="veh_passenger" depart="1893.98" from="24160007#1" to="24160007#0"/>
  <trip id="roi_trip_263" type="veh_passenger" depart="1901.2" from="-1205679702#0" to="431989326"/>
  <trip id="roi_trip_264" type="veh_passenger" depart="1908.43" from="-1205679702#0" to="24160009"/>
  <trip id="roi_trip_265" type="veh_passenger" depart="1915.66" from="24160007#1" to="24160009"/>
  <trip id="roi_trip_266" type="veh_passenger" depart="1922.89" from="895708421" to="431989326"/>
  <trip id="roi_trip_267" type="veh_passenger" depart="1930.12" from="25042886" to="98246932"/>
  <trip id="roi_trip_268" type="veh_passenger" depart="1937.35" from="199885791" to="895708421"/>
  <trip id="roi_trip_269" type="veh_passenger" depart="1944.58" from="423997744" to="24160007#2"/>
  <trip id="roi_trip_270" type="veh_passenger" depart="1951.81" from="314066421-AddedOffRampEdge" to="24160011"/>
  <trip id="roi_trip_271" type="veh_passenger" depart="1959.04" from="-1205679702#1" to="535922409"/>
  <trip id="roi_trip_272" type="veh_passenger" depart="1966.27" from="428326182" to="431981408#0"/>
  <trip id="roi_trip_273" type="veh_passenger" depart="1973.49" from="98246932" to="24160008"/>
  <trip id="roi_trip_274" type="veh_passenger" depart="1980.72" from="431981407" to="24160007#2"/>
  <trip id="roi_trip_275" type="veh_passenger" depart="1987.95" from="431981408#0" to="24160009"/>
  <trip id="roi_trip_276" type="veh_passenger" depart="1995.18" from="1168273992-AddedOffRampEdge" to="24160009"/>
  <trip id="roi_trip_277" type="veh_passenger" depart="2002.41" from="24160007#1" to="24160007#0"/>
  <trip id="roi_trip_278" type="veh_passenger" depart="2009.64" from="431981408#0" to="25042886"/>
  <trip id="roi_trip_279" type="veh_passenger" depart="2016.87" from="1168273992-AddedOffRampEdge" to="1168109380"/>
  <trip id="roi_trip_280" type="veh_passenger" depart="2024.1" from="314066421-AddedOffRampEdge" to="1168273992-AddedOffRampEdge"/>
  <trip id="roi_trip_281" type="veh_passenger" depart="2031.33" from="895708421" to="535922410-AddedOnRampEdge"/>
  <trip id="roi_trip_282" type="veh_passenger" depart="2038.55" from="535922410-AddedOnRampEdge" to="423997744"/>
  <trip id="roi_trip_283" type="veh_passenger" depart="2045.78" from="24160007#1" to="24160007#2"/>
  <trip id="roi_trip_284" type="veh_passenger" depart="2053.01" from="535922410-AddedOnRampEdge" to="24160007#1"/>
  <trip id="roi_trip_285" type="veh_passenger" depart="2060.24" from="24160011" to="-1205679702#0"/>
  <trip id="roi_trip_286" type="veh_passenger" depart="2067.47" from="314066421-AddedOffRampEdge" to="98246932"/>
  <trip id="roi_trip_287" type="veh_passenger" depart="2074.7" from="24160011" to="535922409"/>
  <trip id="roi_trip_288" type="veh_passenger" depart="2081.93" from="-1205679702#1" to="314066421-AddedOffRampEdge"/>
  <trip id="roi_trip_289" type="veh_passenger" depart="2089.16" from="1168273992-AddedOffRampEdge" to="431989326"/>
  <trip id="roi_trip_290" type="veh_passenger" depart="2096.39" from="24160010" to="24160012#1"/>
  <trip id="roi_trip_291" type="veh_passenger" depart="2103.61" from="24160012#1" to="24160011"/>
  <trip id="roi_trip_292" type="veh_passenger" depart="2110.84" from="24160007#2" to="314066421-AddedOffRampEdge"/>
  <trip id="roi_trip_293" type="veh_passenger" depart="2118.07" from="24160007#1" to="24160020"/>
  <trip id="roi_trip_294" type="veh_passenger" depart="2125.3" from="-1205679702#0" to="24160010"/>
  <trip id="roi_trip_295" type="veh_passenger" depart="2132.53" from="24160009" to="428326182"/>
  <trip id="roi_trip_296" type="veh_passenger" depart="2139.76" from="24160007#2" to="25042886"/>