<?xml version="1.0" encoding="UTF-8"?>

<!-- generated on 2025-05-18 00:43:58.884151 by randomTrips.py 9a83456
<configuration>
    <net-file value="D:\TrAD-Quito\sumo\input\simon_bolivar.net.xml"/>
    <output-trip-file value="D:\TrAD-Quito\sumo\input\trips_type2_6000.trips.xml"/>
    <fringe-factor value="3"/>
    <validate value="True"/>
    <insertion-density value="18.0"/>
</configuration>
-->

<!-- generated on 2025-05-18 00:43:52 by Eclipse SUMO duarouter Version 1.18.0
<configuration xmlns:xsi="http://www.w3.org/2001/XMLSchema-instance" xsi:noNamespaceSchemaLocation="http://sumo.dlr.de/xsd/duarouterConfiguration.xsd">

    <input>
        <net-file value="D:\TrAD-Quito\sumo\input\simon_bolivar.net.xml"/>
        <route-files value="D:\TrAD-Quito\sumo\input\trips_type2_6000.trips.xml"/>
    </input>

    <output>
        <output-file value="D:\TrAD-Quito\sumo\input\trips_type2_6000.trips.xml.tmp"/>
        <alternatives-output value="NUL"/>
        <write-trips value="true"/>
    </output>

    <time>
        <begin value="0.0"/>
        <end value="3600.0"/>
    </time>

    <report>
        <no-warnings value="true"/>
        <ignore-errors value="true"/>
        <no-step-log value="true"/>
    </report>

</configuration>
-->

<routes xmlns:xsi="http://www.w3.org/2001/XMLSchema-instance" xsi:noNamespaceSchemaLocation="http://sumo.dlr.de/xsd/routes_file.xsd">
    <trip id="1" depart="0.55" from="-25046393#0" to="-25054221#0"/>
    <trip id="2" depart="1.09" from="25046423" to="25042891#2"/>
    <trip id="3" depart="1.64" from="432234379#1" to="-24683535#5"/>
    <trip id="4" depart="2.19" from="-432770524" to="-1190782923"/>
    <trip id="5" depart="2.74" from="-24791355#1" to="1205693236"/>
    <trip id="6" depart="3.28" from="-1168541555#0" to="-25046396#1"/>
    <trip id="7" depart="3.83" from="24735608#0" to="24405501#1"/>
    <trip id="8" depart="4.38" from="-24791575#3" to="24683560#2"/>
    <trip id="9" depart="4.93" from="302965727#12" to="-1094251932"/>
    <trip id="10" depart="5.47" from="293256120#3" to="25042922#3"/>
    <trip id="11" depart="6.02" from="-293255544#0" to="-25035600#0"/>
    <trip id="12" depart="6.57" from="854227946#0" to="-431827306#2"/>
    <trip id="13" depart="7.12" from="-186530820#1" to="-24683560#4"/>
    <trip id="14" depart="7.66" from="376539778#1" to="24699027#6"/>
    <trip id="15" depart="8.21" from="293256863" to="25046400#1"/>
    <trip id="16" depart="8.76" from="1205662257#0" to="894591169"/>
    <trip id="17" depart="9.31" from="-376543472#0" to="24405507#3"/>
    <trip id="18" depart="9.85" from="337312509#0" to="24699045#5"/>
    <trip id="19" depart="10.40" from="420904972#3" to="24683540#2"/>
    <trip id="20" depart="10.95" from="25043045#0" to="-1219475773"/>
    <trip id="21" depart="11.50" from="-25042891#3" to="-334561890"/>
    <trip id="22" depart="12.04" from="-1205693236" to="-25054591#0"/>
    <trip id="23" depart="12.59" from="-234800473#1" to="-302965727#9"/>
    <trip id="25" depart="13.68" from="-376539199" to="-25046433#0"/>
    <trip id="26" depart="14.23" from="-25044932" to="637275761#0"/>
    <trip id="27" depart="14.78" from="24735605" to="24699032#1"/>
    <trip id="28" depart="15.33" from="-24699039#0" to="25046398#1"/>
    <trip id="29" depart="15.87" from="-24699029#1" to="-80477039#0"/>
    <trip id="30" depart="16.42" from="98246944#17" to="24735618#1"/>
    <trip id="31" depart="16.97" from="199881960#2" to="25042906#0"/>
    <trip id="32" depart="17.52" from="376539197" to="25054870#2"/>
    <trip id="33" depart="18.06" from="-25042897" to="-1201844353"/>
    <trip id="34" depart="18.61" from="-25054593" to="-293255743"/>
    <trip id="36" depart="19.71" from="431775780" to="-376543470"/>
    <trip id="37" depart="20.25" from="24783924#0" to="-895216916#1"/>
    <trip id="38" depart="20.80" from="432807561" to="1168542195#1"/>
    <trip id="39" depart="21.35" from="-25044930#0" to="-25111439#1"/>
    <trip id="40" depart="21.90" from="229472855#0" to="-293255543"/>
    <trip id="41" depart="22.44" from="24405516#3" to="432770530"/>
    <trip id="42" depart="22.99" from="-431775782" to="-25054146#1"/>
    <trip id="43" depart="23.54" from="999668241" to="1211392025"/>
    <trip id="44" depart="24.09" from="-1380250678" to="-1380250679#0"/>
    <trip id="46" depart="25.18" from="276638492#2" to="1079864363"/>
    <trip id="48" depart="26.28" from="999609879" to="199881969#1"/>
    <trip id="49" depart="26.82" from="895216896#1" to="428334464"/>
    <trip id="50" depart="27.37" from="-1094268112" to="25044937"/>
    <trip id="51" depart="27.92" from="25042889#3" to="24160012#1"/>
    <trip id="52" depart="28.46" from="-25044932" to="24783924#1"/>
    <trip id="53" depart="29.01" from="-24405506#1" to="1094298144"/>
    <trip id="54" depart="29.56" from="-668298285#1" to="754427033"/>
    <trip id="55" depart="30.11" from="431775778" to="-293255544#2"/>
    <trip id="57" depart="31.20" from="432777387" to="431827300#1"/>
    <trip id="58" depart="31.75" from="-25054142#3" to="24735616#3"/>
    <trip id="59" depart="32.30" from="24683557#2" to="-25035451#3"/>
    <trip id="60" depart="32.84" from="25054591#0" to="24405488"/>
    <trip id="61" depart="33.39" from="25111441#1" to="220666028#2"/>
    <trip id="62" depart="33.94" from="-107938343" to="-421121876#0"/>
    <trip id="63" depart="34.49" from="-1168287296#1" to="535910625#0"/>
    <trip id="64" depart="35.03" from="431827298" to="376539198"/>
    <trip id="65" depart="35.58" from="-25054228#4" to="-24405491"/>
    <trip id="66" depart="36.13" from="431827297#2" to="668298285#1"/>
    <trip id="67" depart="36.68" from="-1216978711" to="1205118877"/>
    <trip id="68" depart="37.22" from="-1205662257#1" to="25054228#3"/>
    <trip id="69" depart="37.77" from="25054595#0" to="-24735607#2"/>
    <trip id="70" depart="38.32" from="-895216897" to="24405506#5"/>
    <trip id="71" depart="38.87" from="-25044930#1" to="431827304#0"/>
    <trip id="72" depart="39.41" from="-432770526#1" to="-25046813#0"/>
    <trip id="73" depart="39.96" from="1205662259#4" to="25046400#1"/>
    <trip id="74" depart="40.51" from="-24791335#2" to="-376543466#0"/>
    <trip id="75" depart="41.05" from="999609878" to="24791339#1"/>
    <trip id="76" depart="41.60" from="-534900637#1" to="1380250679#1"/>
    <trip id="77" depart="42.15" from="-24405520#2" to="-25054224#0"/>
    <trip id="78" depart="42.70" from="-276638493" to="24683557#2"/>
    <trip id="79" depart="43.24" from="-25042900#3" to="-25054216#0"/>
    <trip id="80" depart="43.79" from="-1205662259#1" to="24735606"/>
    <trip id="81" depart="44.34" from="-25042897" to="432777385#1"/>
    <trip id="83" depart="45.43" from="-25042911#2" to="25042882#1"/>
    <trip id="84" depart="45.98" from="-24791350#0" to="-24735616#1"/>
    <trip id="85" depart="46.53" from="541024816" to="24683531"/>
    <trip id="87" depart="47.62" from="293256888" to="-25044935"/>
    <trip id="88" depart="48.17" from="-199881963" to="1094268120"/>
    <trip id="89" depart="48.72" from="-432770526#2" to="1190782926"/>
    <trip id="90" depart="49.27" from="25046403#0" to="25042889#2"/>
    <trip id="91" depart="49.81" from="948224715" to="-24683610#1"/>
    <trip id="92" depart="50.36" from="-431827302#1" to="-431981406"/>
    <trip id="93" depart="50.91" from="420904972#3" to="-25111441#2"/>
    <trip id="94" depart="51.46" from="-24735609" to="1168311254"/>
    <trip id="95" depart="52.00" from="-432770524" to="-302965728#1"/>
    <trip id="96" depart="52.55" from="-25043043#1" to="535569073"/>
    <trip id="97" depart="53.10" from="-626957571#1" to="429376298"/>
    <trip id="99" depart="54.19" from="999672221" to="376543464#2"/>
    <trip id="100" depart="54.74" from="894591196" to="535572607"/>
    <trip id="101" depart="55.29" from="376542025#1" to="-25042910#1"/>
    <trip id="102" depart="55.83" from="-897097401#0" to="-25046819#0"/>
    <trip id="103" depart="56.38" from="-431827300#1" to="-24405492#1"/>
    <trip id="104" depart="56.93" from="-376543473" to="895462375#2"/>
    <trip id="106" depart="58.02" from="-679902285" to="1080631195#1"/>
    <trip id="107" depart="58.57" from="854227946#0" to="98246944#4"/>
    <trip id="108" depart="59.12" from="199836127#1" to="25044932"/>
    <trip id="109" depart="59.67" from="-24699018#0" to="-372239263#0"/>
    <trip id="110" depart="60.21" from="894591196" to="24683544"/>
    <trip id="111" depart="60.76" from="1205693234#1" to="25054138#1"/>
    <trip id="112" depart="61.31" from="-1203849759" to="24683551#1"/>
    <trip id="113" depart="61.86" from="1094251934" to="421121949"/>
    <trip id="114" depart="62.40" from="-24699025#3" to="83002986"/>
    <trip id="115" depart="62.95" from="-1205693236" to="-25044929#0"/>
    <trip id="116" depart="63.50" from="24683525#2" to="25042889#9"/>
    <trip id="120" depart="65.69" from="-432770520#2" to="24683550#2"/>
    <trip id="121" depart="66.24" from="1168524083" to="626957571#0"/>
    <trip id="122" depart="66.78" from="-24791337" to="25044929#2"/>
    <trip id="123" depart="67.33" from="-25042912#1" to="-895216916#1"/>
    <trip id="124" depart="67.88" from="24791575#1" to="-376539192"/>
    <trip id="125" depart="68.42" from="-25054595#2" to="25054145#0"/>
    <trip id="126" depart="68.97" from="-1205662260" to="1168542194#3"/>
    <trip id="127" depart="69.52" from="999672220" to="98246944#7"/>
    <trip id="128" depart="70.07" from="-1205667518" to="-25046815#1"/>
    <trip id="129" depart="70.61" from="-25044930#1" to="626957566"/>
    <trip id="130" depart="71.16" from="431827304#1" to="431981404#0"/>
    <trip id="131" depart="71.71" from="-376539196#3" to="-25042890"/>
    <trip id="132" depart="72.26" from="357850163#0" to="25043045#1"/>
    <trip id="133" depart="72.80" from="24683560#3" to="897097402#0"/>
    <trip id="134" depart="73.35" from="24735617#0" to="-1094251934"/>
    <trip id="135" depart="73.90" from="31895149#0" to="-372239271"/>
    <trip id="136" depart="74.45" from="24791339#2" to="650356319"/>
    <trip id="137" depart="74.99" from="-24683535#6" to="-24699044#0"/>
    <trip id="138" depart="75.54" from="-24405497" to="24405509#1"/>
    <trip id="139" depart="76.09" from="-25045241" to="24699028"/>
    <trip id="140" depart="76.64" from="25044934#2" to="-25046412#3"/>
    <trip id="141" depart="77.18" from="24699045#2" to="-293255546"/>
    <trip id="142" depart="77.73" from="-98231048#0" to="432777385#1"/>
    <trip id="143" depart="78.28" from="376539203" to="-24683551#0"/>
    <trip id="144" depart="78.83" from="-432770526#2" to="-302965727#4"/>
    <trip id="145" depart="79.37" from="-107938377#0" to="25054595#6"/>
    <trip id="147" depart="80.47" from="25046813#0" to="24405507#2"/>
    <trip id="148" depart="81.01" from="-432775731#1" to="-1094261603#3"/>
    <trip id="149" depart="81.56" from="-1205679702#0" to="431994307"/>
    <trip id="150" depart="82.11" from="432770524" to="24405501#1"/>
    <trip id="151" depart="82.66" from="369018506#0" to="24683549#1"/>
    <trip id="152" depart="83.20" from="-24683557#0" to="-24735604#0"/>
    <trip id="153" depart="83.75" from="-25054582#0" to="432770531#3"/>
    <trip id="154" depart="84.30" from="293255543" to="428326182"/>
    <trip id="155" depart="84.85" from="432768291#6" to="-25046433#0"/>
    <trip id="156" depart="85.39" from="-25043043#0" to="-24699025#0"/>
    <trip id="157" depart="85.94" from="25111445#1" to="432248094"/>
    <trip id="159" depart="87.04" from="-24699017#2" to="535922410"/>
    <trip id="160" depart="87.58" from="421121863#2" to="895216896#1"/>
    <trip id="162" depart="88.68" from="-1168541553" to="25046418#0"/>
    <trip id="163" depart="89.23" from="-27408621#1" to="538972997#1"/>
    <trip id="164" depart="89.77" from="293255909#2" to="429690525"/>
    <trip id="165" depart="90.32" from="302965727#4" to="-293255732"/>
    <trip id="166" depart="90.87" from="27408621#0" to="-24699027#8"/>
    <trip id="168" depart="91.96" from="-25035451#2" to="334549232"/>
    <trip id="169" depart="92.51" from="-80477039#0" to="-376539202"/>
    <trip id="171" depart="93.61" from="-1168311254" to="-25045239#0"/>
    <trip id="172" depart="94.15" from="-25111486" to="429690526"/>
    <trip id="173" depart="94.70" from="894591163#2" to="-302965728#3"/>
    <trip id="175" depart="95.79" from="897097401#1" to="24160011"/>
    <trip id="176" depart="96.34" from="637275761#0" to="-24699044#0"/>
    <trip id="177" depart="96.89" from="895216895" to="-25043180#0"/>
    <trip id="178" depart="97.44" from="893289558" to="-293255555"/>
    <trip id="179" depart="97.98" from="-24405501#1" to="1094298143#1"/>
    <trip id="180" depart="98.53" from="25046400#0" to="-376543469#0"/>
    <trip id="181" depart="99.08" from="24683550#0" to="1216978711"/>
    <trip id="183" depart="100.17" from="-25043182#2" to="25044568"/>
    <trip id="184" depart="100.72" from="-107938350#3" to="535571842"/>
    <trip id="185" depart="101.27" from="1205662259#1" to="25044933#1"/>
    <trip id="186" depart="101.82" from="25046813#2" to="25042887#1"/>
    <trip id="187" depart="102.36" from="-372239263#0" to="-24405514#1"/>
    <trip id="188" depart="102.91" from="24791342#2" to="-429690524#0"/>
    <trip id="189" depart="103.46" from="-25054590#2" to="420905006#1"/>
    <trip id="190" depart="104.01" from="25044937" to="-376539192"/>
    <trip id="191" depart="104.55" from="-25054583#1" to="-992340212#2"/>
    <trip id="192" depart="105.10" from="-431827302#1" to="-372239259#0"/>
    <trip id="193" depart="105.65" from="-24683520" to="107938391#2"/>
    <trip id="194" depart="106.20" from="637275764#1" to="25042892"/>
    <trip id="195" depart="106.74" from="432770521#1" to="24699041#4"/>
    <trip id="196" depart="107.29" from="-25054217#2" to="24405504#0"/>
    <trip id="197" depart="107.84" from="-107938343" to="-334561590"/>
    <trip id="198" depart="108.38" from="-432777382" to="24683545"/>
    <trip id="199" depart="108.93" from="24735618#0" to="1190782924"/>
    <trip id="200" depart="109.48" from="-626957570#0" to="-25046819#0"/>
    <trip id="201" depart="110.03" from="-894591187" to="432775731#1"/>
    <trip id="202" depart="110.57" from="293255543" to="-25042915#3"/>
    <trip id="204" depart="111.67" from="24699041#5" to="-431827304#4"/>
    <trip id="205" depart="112.22" from="31895154" to="25054142#1"/>
    <trip id="206" depart="112.76" from="25035451#0" to="-25054224#0"/>
    <trip id="207" depart="113.31" from="-24783924#5" to="-1168542193#0"/>
    <trip id="208" depart="113.86" from="-25042920#2" to="1201838049"/>
    <trip id="209" depart="114.41" from="376543462" to="-24405520#0"/>
    <trip id="210" depart="114.95" from="-432248099#6" to="24735604#0"/>
    <trip id="211" depart="115.50" from="-24735615" to="25042920#1"/>
    <trip id="212" depart="116.05" from="107938364" to="-25054870#2"/>
    <trip id="213" depart="116.60" from="24783924#10" to="-1080631189"/>
    <trip id="214" depart="117.14" from="25054217#0" to="25054595#2"/>
    <trip id="215" depart="117.69" from="-24405497" to="1094251932"/>
    <trip id="216" depart="118.24" from="-24699045#5" to="769933617"/>
    <trip id="217" depart="118.79" from="1168287297#1" to="-199836127#1"/>
    <trip id="218" depart="119.33" from="-25043042" to="420905011#0"/>
    <trip id="219" depart="119.88" from="-754427031#1" to="293255911#2"/>
    <trip id="220" depart="120.43" from="24791350#2" to="948224713"/>
    <trip id="222" depart="121.52" from="431994307" to="24699036#3"/>
    <trip id="223" depart="122.07" from="25044936" to="1205693235"/>
    <trip id="224" depart="122.62" from="337623511#0" to="24405504#0"/>
    <trip id="225" depart="123.16" from="432768291#0" to="25046813#2"/>
    <trip id="226" depart="123.71" from="-895216896#0" to="-276641591"/>
    <trip id="227" depart="124.26" from="-25042923#1" to="24735613"/>
    <trip id="228" depart="124.81" from="25054595#0" to="179181038#7"/>
    <trip id="229" depart="125.35" from="24699029#1" to="-302965727#10"/>
    <trip id="230" depart="125.90" from="-1205679706" to="-334560316"/>
    <trip id="232" depart="127.00" from="1205662260" to="-24791335#0"/>
    <trip id="233" depart="127.54" from="-25042901" to="25042916#1"/>
    <trip id="234" depart="128.09" from="25043180#1" to="-24405506#3"/>
    <trip id="235" depart="128.64" from="-431827307#1" to="24405492#1"/>
    <trip id="236" depart="129.19" from="-432768291#2" to="-25046421"/>
    <trip id="237" depart="129.73" from="-432770520#5" to="432777385#1"/>
    <trip id="238" depart="130.28" from="24405516#1" to="25042919#1"/>
    <trip id="239" depart="130.83" from="376543474#2" to="25054587#1"/>
    <trip id="240" depart="131.38" from="-376543474#4" to="-1092457245"/>
    <trip id="241" depart="131.92" from="-302965728#4" to="25054216#1"/>
    <trip id="242" depart="132.47" from="376543467" to="754427032#1"/>
    <trip id="243" depart="133.02" from="-432770520#1" to="25046819#2"/>
    <trip id="244" depart="133.57" from="1211499993" to="24699027#4"/>
    <trip id="245" depart="134.11" from="-24791575#3" to="-25054146#1"/>
    <trip id="246" depart="134.66" from="-432807559#2" to="-1175651171"/>
    <trip id="247" depart="135.21" from="-276636146#5" to="25042896#3"/>
    <trip id="248" depart="135.75" from="-431827304#5" to="-25042908#0"/>
    <trip id="249" depart="136.30" from="-864273548" to="-24735606"/>
    <trip id="250" depart="136.85" from="24699025#6" to="-1168798714"/>
    <trip id="252" depart="137.94" from="-1168541555#2" to="24783924#5"/>
    <trip id="253" depart="138.49" from="-24683538#0" to="1168799438#0"/>
    <trip id="254" depart="139.04" from="-1201838048" to="-768280998"/>
    <trip id="255" depart="139.59" from="-24791345#0" to="-422425537#1"/>
    <trip id="256" depart="140.13" from="25054588#1" to="-768280998"/>
    <trip id="257" depart="140.68" from="25054219#1" to="376539199"/>
    <trip id="258" depart="141.23" from="-25043045#1" to="-24683527#3"/>
    <trip id="259" depart="141.78" from="-1168287296#1" to="24405488"/>
    <trip id="260" depart="142.32" from="999672222" to="-432770520#4"/>
    <trip id="261" depart="142.87" from="24735611#0" to="25111445#4"/>
    <trip id="262" depart="143.42" from="24735614" to="25054217#2"/>
    <trip id="263" depart="143.97" from="754427031#0" to="-25046397#1"/>
    <trip id="264" depart="144.51" from="-1168287297#0" to="-25035451#2"/>
    <trip id="265" depart="145.06" from="-24683517" to="25042884"/>
    <trip id="266" depart="145.61" from="24159814#1" to="-25054145#0"/>
    <trip id="267" depart="146.16" from="25042919#1" to="25054590#0"/>
    <trip id="268" depart="146.70" from="-24699034" to="24699030#2"/>
    <trip id="269" depart="147.25" from="25054146#0" to="-24699041#3"/>
    <trip id="270" depart="147.80" from="31896236#0" to="855320888"/>
    <trip id="271" depart="148.34" from="-24405501#1" to="-1168542194#3"/>
    <trip id="272" depart="148.89" from="-25054587#1" to="25042892"/>
    <trip id="273" depart="149.44" from="854227946#3" to="-895216932#2"/>
    <trip id="274" depart="149.99" from="25044931#0" to="-24683515#0"/>
    <trip id="276" depart="151.08" from="-24405488" to="25054596#3"/>
    <trip id="277" depart="151.63" from="376543463" to="24699025#5"/>
    <trip id="278" depart="152.18" from="-24405520#2" to="895462373"/>
    <trip id="279" depart="152.72" from="25111487#0" to="-432768292#1"/>
    <trip id="280" depart="153.27" from="-432775732#1" to="-650356319"/>
    <trip id="281" depart="153.82" from="1094268113" to="-432248097#0"/>
    <trip id="282" depart="154.37" from="376543462" to="35631490"/>
    <trip id="283" depart="154.91" from="-24405492#1" to="83002986"/>
    <trip id="285" depart="156.01" from="25043183#0" to="1094298144"/>
    <trip id="286" depart="156.56" from="25046415" to="864273547"/>
    <trip id="287" depart="157.10" from="-25045235#0" to="302965727#9"/>
    <trip id="288" depart="157.65" from="1205662259#0" to="1203849764"/>
    <trip id="289" depart="158.20" from="-432807559#1" to="25046403#2"/>
    <trip id="290" depart="158.75" from="-25044934#2" to="421121879"/>
    <trip id="291" depart="159.29" from="337623511#0" to="-24683535#4"/>
    <trip id="292" depart="159.84" from="431827304#3" to="-25054870#2"/>
    <trip id="293" depart="160.39" from="-854227948" to="24699034"/>
    <trip id="295" depart="161.48" from="376543464#2" to="-25044576#0"/>
    <trip id="296" depart="162.03" from="-24791345#2" to="293255544#0"/>
    <trip id="297" depart="162.58" from="-293255544#0" to="431981408#0"/>
    <trip id="298" depart="163.12" from="25042921#1" to="-302965727#3"/>
    <trip id="299" depart="163.67" from="-1094268111" to="679900450"/>
    <trip id="300" depart="164.22" from="-1216978711" to="25044934#1"/>
    <trip id="301" depart="164.77" from="-98231048#0" to="25054223#2"/>
    <trip id="302" depart="165.31" from="25042906#2" to="24791335#6"/>
    <trip id="303" depart="165.86" from="-999609883#1" to="276636146#3"/>
    <trip id="304" depart="166.41" from="-199568036#0" to="-25054218"/>
    <trip id="305" depart="166.96" from="25042906#6" to="-376539203"/>
    <trip id="306" depart="167.50" from="24405511#2" to="1201838045"/>
    <trip id="307" depart="168.05" from="1201620878" to="1094261603#1"/>
    <trip id="308" depart="168.60" from="25054140" to="-431775778"/>
    <trip id="309" depart="169.15" from="25042922#3" to="-293256120#0"/>
    <trip id="312" depart="170.79" from="1205112670" to="25054582#2"/>
    <trip id="314" depart="171.88" from="-895462375#2" to="25045242#0"/>
    <trip id="315" depart="172.43" from="895216933#0" to="199836131"/>
    <trip id="316" depart="172.98" from="-25046417#0" to="-24699017#0"/>
    <trip id="317" depart="173.53" from="-24735614" to="-25054583#0"/>
    <trip id="319" depart="174.62" from="1203849760" to="-302965727#1"/>
    <trip id="320" depart="175.17" from="895216932#0" to="24405510"/>
    <trip id="321" depart="175.71" from="25042915#3" to="-24735603#0"/>
    <trip id="322" depart="176.26" from="422425537#2" to="1205370744"/>
    <trip id="323" depart="176.81" from="429531573#1" to="24683535#6"/>
    <trip id="324" depart="177.36" from="-894591161" to="1168283951#1"/>
    <trip id="326" depart="178.45" from="652044149" to="1201877287"/>
    <trip id="327" depart="179.00" from="31896632" to="-895462358#0"/>
    <trip id="328" depart="179.55" from="-1205667519" to="24735603#1"/>
    <trip id="329" depart="180.09" from="-1201877667" to="-24791355#0"/>
    <trip id="330" depart="180.64" from="238875364#1" to="-376539199"/>
    <trip id="332" depart="181.74" from="25054592#1" to="24699029#2"/>
    <trip id="333" depart="182.28" from="276636146#5" to="-25054228#1"/>
    <trip id="334" depart="182.83" from="1168524083" to="1168541555#0"/>
    <trip id="336" depart="183.93" from="98246944#19" to="-376539202"/>
    <trip id="337" depart="184.47" from="24699025#2" to="24699032#1"/>
    <trip id="338" depart="185.02" from="25046434#0" to="668298285#1"/>
    <trip id="339" depart="185.57" from="-24791341" to="-25046811#0"/>
    <trip id="340" depart="186.12" from="24791335#5" to="-25042882#1"/>
    <trip id="341" depart="186.66" from="-24699041#6" to="-24405522#1"/>
    <trip id="342" depart="187.21" from="-107938350#6" to="1168541555#0"/>
    <trip id="343" depart="187.76" from="24683522" to="-337312509#0"/>
    <trip id="344" depart="188.30" from="-25042901" to="25043183#1"/>
    <trip id="345" depart="188.85" from="25042922#3" to="1168541559"/>
    <trip id="346" depart="189.40" from="25042896#3" to="535569073"/>
    <trip id="348" depart="190.49" from="24791336#1" to="626957568"/>
    <trip id="349" depart="191.04" from="-432770531#1" to="24405500"/>
    <trip id="350" depart="191.59" from="24735603#1" to="432807559#0"/>
    <trip id="351" depart="192.14" from="334561591#5" to="-24405519#0"/>
    <trip id="352" depart="192.68" from="-24699031#3" to="-376541641"/>
    <trip id="353" depart="193.23" from="25054146#1" to="24683527#1"/>
    <trip id="355" depart="194.33" from="25042903#1" to="25042926"/>
    <trip id="356" depart="194.87" from="652107161" to="1205679702#1"/>
    <trip id="357" depart="195.42" from="107938350#5" to="-24683525#2"/>
    <trip id="358" depart="195.97" from="-1190782922" to="1094279093#1"/>
    <trip id="359" depart="196.52" from="-25054870#2" to="-25111445#2"/>
    <trip id="360" depart="197.06" from="-1380250679#1" to="854227943#1"/>
    <trip id="361" depart="197.61" from="372239261#0" to="24683538#1"/>
    <trip id="362" depart="198.16" from="754427032#1" to="999672219"/>
    <trip id="363" depart="198.71" from="25035451#0" to="-293255911#1"/>
    <trip id="364" depart="199.25" from="-1190782924" to="25054220#0"/>
    <trip id="365" depart="199.80" from="-894591163#1" to="24791341"/>
    <trip id="366" depart="200.35" from="457320396#5" to="-25044574#2"/>
    <trip id="367" depart="200.90" from="24405519#0" to="24735611#1"/>
    <trip id="368" depart="201.44" from="-999672219" to="-24683549#2"/>
    <trip id="369" depart="201.99" from="-302965727#13" to="-431827302#1"/>
    <trip id="371" depart="203.08" from="-27347564#1" to="25042916#0"/>
    <trip id="372" depart="203.63" from="-25046811#0" to="668297273"/>
    <trip id="373" depart="204.18" from="302965728#4" to="24405506#6"/>
    <trip id="374" depart="204.73" from="-679902284#1" to="-376543470"/>
    <trip id="375" depart="205.27" from="-25054871#1" to="894591146"/>
    <trip id="376" depart="205.82" from="-431827304#4" to="1223982209"/>
    <trip id="377" depart="206.37" from="98246944#13" to="24791348"/>
    <trip id="378" depart="206.92" from="1206018454" to="-999672220"/>
    <trip id="379" depart="207.46" from="-24735607#0" to="-432807560"/>
    <trip id="381" depart="208.56" from="25054587#0" to="-25046412#3"/>
    <trip id="382" depart="209.11" from="1380250679#0" to="535910621#1-AddedOffRampEdge"/>
    <trip id="383" depart="209.65" from="-534900637#1" to="25042922#3"/>
    <trip id="384" depart="210.20" from="-24405520#3" to="894591169"/>
    <trip id="385" depart="210.75" from="24683557#2" to="-25054597"/>
    <trip id="386" depart="211.30" from="-24699025#7" to="24405506#9"/>
    <trip id="387" depart="211.84" from="179181038#5" to="-24683554#1"/>
    <trip id="389" depart="212.94" from="-805903619" to="-24701460#0"/>
    <trip id="390" depart="213.49" from="357850162" to="1205667518"/>
    <trip id="391" depart="214.03" from="25044934#0" to="1207682864"/>
    <trip id="392" depart="214.58" from="-25046388" to="376542025#1"/>
    <trip id="393" depart="215.13" from="895462378#1" to="-25054870#1"/>
    <trip id="394" depart="215.67" from="179181038#2" to="-854227951#0"/>
    <trip id="395" depart="216.22" from="534900635#1" to="1206753904#1"/>
    <trip id="396" depart="216.77" from="431827299#1" to="429690525"/>
    <trip id="397" depart="217.32" from="-25046396#1" to="276602814#0"/>
    <trip id="398" depart="217.86" from="-432762971" to="626957570#0"/>
    <trip id="399" depart="218.41" from="1094268118#0" to="334561591#7"/>
    <trip id="400" depart="218.96" from="-25046412#6" to="-372239268"/>
    <trip id="401" depart="219.51" from="24405520#0" to="999672219"/>
    <trip id="402" depart="220.05" from="-992340212#0" to="-24791354#2"/>
    <trip id="403" depart="220.60" from="1205662259#1" to="-432768291#0"/>
    <trip id="404" depart="221.15" from="179181038#4" to="24405497"/>
    <trip id="405" depart="221.70" from="-754427029#0" to="-420904972#3"/>
    <trip id="406" depart="222.24" from="-24735608#0" to="25042921#1"/>
    <trip id="407" depart="222.79" from="24405496" to="-25054591#2"/>
    <trip id="408" depart="223.34" from="25054871#2" to="-1211499992"/>
    <trip id="409" depart="223.89" from="25054138#2" to="25043182#0"/>
    <trip id="410" depart="224.43" from="302965727#6" to="-889497761"/>
    <trip id="411" depart="224.98" from="24791342#1" to="334561591#7"/>
    <trip id="412" depart="225.53" from="897097401#0" to="1205662257#4"/>
    <trip id="413" depart="226.08" from="-1168799438#0" to="1205679706"/>
    <trip id="414" depart="226.62" from="24683515#1" to="431827300#0"/>
    <trip id="415" depart="227.17" from="429690526" to="1168283948"/>
    <trip id="416" depart="227.72" from="1168542194#3" to="1168542193#1"/>
    <trip id="417" depart="228.26" from="25045240" to="-999609878"/>
    <trip id="418" depart="228.81" from="24735618#1" to="-25035452#2"/>
    <trip id="420" depart="229.91" from="-276638494#1" to="25042915#3"/>
    <trip id="421" depart="230.45" from="24735608#0" to="421121879"/>
    <trip id="423" depart="231.55" from="-376543474#3" to="-376543474#2"/>
    <trip id="424" depart="232.10" from="25044935" to="25054224#1"/>
    <trip id="425" depart="232.64" from="429529117#0" to="-1205662257#2"/>
    <trip id="426" depart="233.19" from="-1205662255" to="24735606"/>
    <trip id="428" depart="234.29" from="25054142#1" to="1094282283"/>
    <trip id="429" depart="234.83" from="-220666028#0" to="24735609"/>
    <trip id="430" depart="235.38" from="429529117#1" to="1168287297#4"/>
    <trip id="431" depart="235.93" from="25042910#1" to="432777383"/>
    <trip id="432" depart="236.48" from="-1201612998" to="276638494#1"/>
    <trip id="433" depart="237.02" from="-25046817" to="-679902284#1"/>
    <trip id="434" depart="237.57" from="-24683552" to="229472853#1"/>
    <trip id="435" depart="238.12" from="24160010" to="276636146#1"/>
    <trip id="436" depart="238.67" from="-24699036#3" to="-24683522"/>
    <trip id="439" depart="240.31" from="-24683549#1" to="1168544743#1"/>
    <trip id="440" depart="240.86" from="-25043182#0" to="-276626522"/>
    <trip id="441" depart="241.40" from="-1094261603#2" to="302965727#10"/>
    <trip id="442" depart="241.95" from="432770520#1" to="25042893#0"/>
    <trip id="443" depart="242.50" from="-24699025#5" to="1168287296#1"/>
    <trip id="444" depart="243.04" from="-293256120#2" to="24683556"/>