<?xml version="1.0" encoding="UTF-8"?>

<!-- generated on 2025-05-14 00:42:50.666518 by randomTrips.py 9a83456
<configuration>
    <net-file value="D:\TrAD-Quito\sumo\input\simon_bolivar.net.xml"/>
    <output-trip-file value="D:\TrAD-Quito\sumo\input\trips_type2_1000.trips.xml"/>
    <fringe-factor value="3"/>
    <validate value="True"/>
    <insertion-density value="28.0"/>
    <binomial value="100"/>
</configuration>
-->

<!-- generated on 2025-05-14 00:42:40 by Eclipse SUMO duarouter Version 1.18.0
<configuration xmlns:xsi="http://www.w3.org/2001/XMLSchema-instance" xsi:noNamespaceSchemaLocation="http://sumo.dlr.de/xsd/duarouterConfiguration.xsd">

    <input>
        <net-file value="D:\TrAD-Quito\sumo\input\simon_bolivar.net.xml"/>
        <route-files value="D:\TrAD-Quito\sumo\input\trips_type2_1000.trips.xml"/>
    </input>

    <output>
        <output-file value="D:\TrAD-Quito\sumo\input\trips_type2_1000.trips.xml.tmp"/>
        <alternatives-output value="NUL"/>
        <write-trips value="true"/>
    </output>

    <time>
        <begin value="0.0"/>
        <end value="3600.0"/>
    </time>

    <report>
        <no-warnings value="true"/>
        <ignore-errors value="true"/>
        <no-step-log value="true"/>
    </report>

</configuration>
-->

<routes xmlns:xsi="http://www.w3.org/2001/XMLSchema-instance" xsi:noNamespaceSchemaLocation="http://sumo.dlr.de/xsd/routes_file.xsd">
    <trip id="0" depart="0.00" from="-25046393#0" to="-25054221#0"/>
    <trip id="1" depart="0.00" from="-24783924#4" to="24791339#1"/>
    <trip id="2" depart="0.00" from="293256120#3" to="25042922#3"/>
    <trip id="3" depart="0.00" from="25045239#0" to="25042900#3"/>
    <trip id="4" depart="1.00" from="-25111439#1" to="-1168287297#3"/>
    <trip id="5" depart="2.00" from="31895149#0" to="-372239271"/>
    <trip id="6" depart="2.00" from="25054599" to="24735612#3"/>
    <trip id="7" depart="2.00" from="-1205679702#0" to="431994307"/>
    <trip id="8" depart="3.00" from="25046423" to="-431827299#0"/>
    <trip id="10" depart="3.00" from="535554959#1" to="24405487#2"/>
    <trip id="11" depart="3.00" from="-25046433#1" to="1094268117"/>
    <trip id="12" depart="3.00" from="-25042920#2" to="1201838049"/>
    <trip id="13" depart="4.00" from="25054217#0" to="25054595#2"/>
    <trip id="14" depart="4.00" from="-302965728#4" to="25054216#1"/>
    <trip id="17" depart="4.00" from="1205662259#4" to="999672222"/>
    <trip id="18" depart="4.00" from="-24683611#1" to="-24735603#0"/>
    <trip id="19" depart="5.00" from="-25054587#1" to="25042892"/>
    <trip id="21" depart="5.00" from="1203849760" to="-302965727#1"/>
    <trip id="23" depart="8.00" from="293256038" to="432775731#1"/>
    <trip id="24" depart="9.00" from="1205662257#1" to="1168542191#0"/>
    <trip id="25" depart="9.00" from="431827307#1" to="24405521#2"/>
    <trip id="26" depart="9.00" from="27347564#3" to="-25054870#1"/>
    <trip id="27" depart="9.00" from="376543476#3" to="-24791345#1"/>
    <trip id="28" depart="9.00" from="-1094298143#0" to="276602814#0"/>
    <trip id="29" depart="10.00" from="535572605#0" to="372239269#0"/>
    <trip id="30" depart="10.00" from="424685850#1" to="24683519#1"/>
    <trip id="31" depart="11.00" from="-25054218" to="-25046811#1"/>
    <trip id="32" depart="11.00" from="25054142#2" to="-25042926"/>
    <trip id="34" depart="11.00" from="-25111440#1" to="293255911#2"/>
    <trip id="35" depart="13.00" from="-1201877667" to="1205679706"/>
    <trip id="36" depart="13.00" from="535910621#1" to="376543469#2"/>
    <trip id="37" depart="13.00" from="-1205693235" to="-276636146#1"/>
    <trip id="38" depart="13.00" from="1168283948" to="-25054602#2"/>
    <trip id="39" depart="13.00" from="276623569" to="-432768291#0"/>
    <trip id="40" depart="14.00" from="192145205" to="-637275761#1"/>
    <trip id="41" depart="15.00" from="-1201612998" to="24783924#11"/>
    <trip id="42" depart="15.00" from="668297058" to="1205693236"/>
    <trip id="43" depart="16.00" from="-895216896#0" to="877695144"/>
    <trip id="44" depart="16.00" from="-25054590#2" to="-25035451#0"/>
    <trip id="46" depart="17.00" from="24405487#0" to="-24699027#5"/>
    <trip id="47" depart="17.00" from="24735616#3" to="25042915#4"/>
    <trip id="48" depart="18.00" from="-1168305905#1" to="-372239268"/>
    <trip id="49" depart="18.00" from="-24791339#1" to="-24699017#1"/>
    <trip id="50" depart="19.00" from="626957569#1" to="854227944"/>
    <trip id="51" depart="20.00" from="1094261605" to="-668297058"/>
    <trip id="52" depart="20.00" from="179181038#3" to="-1094268118#1"/>
    <trip id="53" depart="20.00" from="302965728#3" to="25042889#5"/>
    <trip id="54" depart="20.00" from="-24699039#1" to="1205679701"/>
    <trip id="55" depart="21.00" from="-25054582#0" to="-432777386#6"/>
    <trip id="56" depart="21.00" from="-31896236#1" to="-24683554#0"/>
    <trip id="57" depart="22.00" from="-25044575" to="1216978709#0"/>
    <trip id="58" depart="22.00" from="-24405490#1" to="107938350#1"/>
    <trip id="59" depart="23.00" from="-24683538#1" to="31896253"/>
    <trip id="60" depart="23.00" from="25054870#2" to="25046407#2"/>
    <trip id="61" depart="24.00" from="854227946#3" to="-25046407#1"/>
    <trip id="62" depart="24.00" from="-895216931" to="-24735616#2"/>
    <trip id="63" depart="24.00" from="25042914#1" to="334559786"/>
    <trip id="64" depart="24.00" from="24735611#0" to="1168283948"/>
    <trip id="65" depart="25.00" from="-1205439393" to="-293255543"/>
    <trip id="66" depart="26.00" from="-24791335#1" to="24683515#1"/>
    <trip id="67" depart="26.00" from="-431981406" to="-25054591#0"/>
    <trip id="68" depart="26.00" from="24783924#4" to="420905045#0"/>
    <trip id="69" depart="26.00" from="337623511#0" to="895462358#0"/>
    <trip id="70" depart="26.00" from="-1205367604" to="432777381#1"/>
    <trip id="71" depart="27.00" from="25042920#2" to="668298285#1"/>
    <trip id="73" depart="27.00" from="24405520#0" to="534900637#0"/>
    <trip id="74" depart="28.00" from="-420904972#1" to="25046407#2"/>
    <trip id="75" depart="28.00" from="-24699038" to="-337312509#0"/>
    <trip id="76" depart="29.00" from="31895149#1" to="-376539197"/>
    <trip id="77" depart="30.00" from="25111445#1" to="25054590#2"/>
    <trip id="78" depart="30.00" from="432777386#3" to="24791336#3"/>
    <trip id="79" depart="30.00" from="-25043045#1" to="302965727#11"/>
    <trip id="80" depart="31.00" from="-25046388" to="25054228#4"/>
    <trip id="81" depart="31.00" from="-25054870#2" to="376539778#1"/>
    <trip id="82" depart="32.00" from="25042905#2" to="107938350#4"/>
    <trip id="83" depart="32.00" from="24791575#1" to="432777386#4"/>
    <trip id="84" depart="33.00" from="-1380250678" to="24699027#8"/>
    <trip id="85" depart="34.00" from="-24683551#1" to="25042887#0"/>
    <trip id="87" depart="35.00" from="24791354#0" to="1168305904"/>
    <trip id="88" depart="35.00" from="-1205367605" to="25042887#0"/>
    <trip id="89" depart="35.00" from="25035451#2" to="24160007#1"/>
    <trip id="90" depart="36.00" from="24683527#4" to="24160013"/>
    <trip id="91" depart="36.00" from="-25042922#1" to="-25054218"/>
    <trip id="92" depart="36.00" from="1094268115#1" to="-1201829326#1"/>
    <trip id="93" depart="37.00" from="-1190782927" to="24683535#6"/>
    <trip id="94" depart="37.00" from="25044936" to="24791355#1"/>
    <trip id="95" depart="38.00" from="24735618#0" to="25042909"/>
    <trip id="96" depart="38.00" from="-1380250679#1" to="-24791345#3"/>
    <trip id="97" depart="39.00" from="-24699025#3" to="98246944#9"/>
    <trip id="98" depart="39.00" from="-24405510" to="-24405507#5"/>
    <trip id="99" depart="39.00" from="357850162" to="-25111441#1"/>
    <trip id="100" depart="40.00" from="-24791344#2" to="24683546#1"/>
    <trip id="101" depart="40.00" from="-24405520#3" to="431775783-AddedOnRampEdge"/>
    <trip id="102" depart="40.00" from="25046398#0" to="24791358"/>
    <trip id="103" depart="41.00" from="-429529117#1" to="25054585#4"/>
    <trip id="104" depart="41.00" from="314066419" to="420905006#1"/>
    <trip id="105" depart="41.00" from="534900637#0" to="668298285#1"/>
    <trip id="106" depart="41.00" from="-432777383" to="-337623511#1"/>
    <trip id="107" depart="41.00" from="-376542025#0" to="-999609883#1"/>
    <trip id="108" depart="41.00" from="-1201838046" to="24160007#1"/>
    <trip id="109" depart="42.00" from="-1190782926" to="25111486"/>
    <trip id="111" depart="42.00" from="376543474#3" to="25054870#2"/>
    <trip id="112" depart="43.00" from="31896632" to="25042911#2"/>
    <trip id="113" depart="44.00" from="25111440#1" to="-854227946#4"/>
    <trip id="114" depart="44.00" from="-25054223#3" to="897097402#1"/>
    <trip id="115" depart="44.00" from="25042910#0" to="-24699031#3"/>
    <trip id="116" depart="44.00" from="-24791342#3" to="24405487#0"/>
    <trip id="117" depart="44.00" from="24405514#0" to="24791575#3"/>
    <trip id="118" depart="44.00" from="-421121874" to="-293256120#1"/>
    <trip id="120" depart="45.00" from="-25042923#1" to="199885791"/>
    <trip id="121" depart="45.00" from="-25044938" to="-999672220"/>
    <trip id="122" depart="46.00" from="431827306#0" to="-25054596#0"/>
    <trip id="124" depart="47.00" from="-24791335#3" to="-31895154"/>
    <trip id="125" depart="47.00" from="25042893#1" to="-432248097#1"/>
    <trip id="126" depart="48.00" from="-895462373" to="1205679701"/>
    <trip id="127" depart="48.00" from="535910625#0" to="25042907#1"/>
    <trip id="128" depart="48.00" from="24699025#9" to="1223982209"/>
    <trip id="129" depart="49.00" from="-24683554#0" to="-24791355#0"/>
    <trip id="130" depart="49.00" from="98246921" to="-909187260"/>
    <trip id="131" depart="50.00" from="25045239#1" to="1205118878"/>
    <trip id="132" depart="50.00" from="-24405506#1" to="-25042922#1"/>
    <trip id="133" depart="51.00" from="535566686" to="1168541553"/>
    <trip id="134" depart="51.00" from="-199881967#0" to="-24699025#4"/>
    <trip id="135" depart="51.00" from="-1380250680" to="637275764#1"/>
    <trip id="136" depart="52.00" from="805508870#1" to="334560315#1"/>
    <trip id="137" depart="53.00" from="-948224714" to="-1094251931"/>
    <trip id="139" depart="54.00" from="895462378#1" to="-1205679704"/>
    <trip id="141" depart="54.00" from="-679902284#1" to="25054596#0"/>
    <trip id="142" depart="55.00" from="25046431" to="895216895"/>
    <trip id="144" depart="56.00" from="-107938350#5" to="-293255543"/>
    <trip id="145" depart="57.00" from="1168287297#1" to="-668297058"/>
    <trip id="146" depart="58.00" from="-24791354#0" to="-25044937"/>
    <trip id="147" depart="59.00" from="-1201612997" to="376543465#1"/>
    <trip id="148" depart="59.00" from="431994307" to="-432248097#0"/>
    <trip id="149" depart="59.00" from="-25111441#2" to="1168544743#1"/>
    <trip id="150" depart="60.00" from="25042923#0" to="429529117#1"/>
    <trip id="152" depart="60.00" from="894591163#2" to="24699029#0"/>
    <trip id="153" depart="61.00" from="-1201844353" to="24783924#11"/>
    <trip id="154" depart="62.00" from="-24683535#3" to="-421121863#0"/>
    <trip id="155" depart="63.00" from="25042889#2" to="25042900#1"/>
    <trip id="156" depart="63.00" from="894591201" to="24791345#3"/>
    <trip id="157" depart="64.00" from="-24405511#1" to="-25042919#2"/>
    <trip id="158" depart="64.00" from="-24405506#2" to="-1094541188#0"/>
    <trip id="159" depart="64.00" from="-24699031#3" to="-25035451#2"/>
    <trip id="160" depart="64.00" from="24699036#2" to="25044579"/>
    <trip id="161" depart="64.00" from="-25046434#1" to="-25045236"/>
    <trip id="162" depart="65.00" from="431827304#1" to="-432777381#2"/>
    <trip id="164" depart="66.00" from="-25046406#0" to="199881963"/>
    <trip id="165" depart="66.00" from="293255544#0" to="24683611#1"/>
    <trip id="166" depart="67.00" from="27347564#2" to="-25054871#2"/>
    <trip id="167" depart="67.00" from="-507058715" to="107938343"/>
    <trip id="168" depart="67.00" from="-1203849764" to="-894591163#2"/>
    <trip id="169" depart="68.00" from="-854227948" to="372239269#0"/>
    <trip id="170" depart="68.00" from="535922410-AddedOnRampEdge" to="1203849759"/>
    <trip id="171" depart="68.00" from="25042906#6" to="24791336#1"/>
    <trip id="172" depart="68.00" from="-895216916#1" to="432775732#0"/>
    <trip id="173" depart="68.00" from="-854227943#0" to="637275759"/>
    <trip id="174" depart="68.00" from="-25046412#0" to="535566679#0"/>
    <trip id="175" depart="69.00" from="-24735616#1" to="-24683527#3"/>
    <trip id="176" depart="69.00" from="25046425" to="895216931"/>
    <trip id="178" depart="70.00" from="24405520#0" to="25042896#0"/>
    <trip id="179" depart="70.00" from="-25035452#1" to="-25054587#1"/>
    <trip id="180" depart="70.00" from="376539197" to="457320396#3"/>
    <trip id="181" depart="70.00" from="25042882#0" to="-758831775#1"/>
    <trip id="182" depart="71.00" from="-25054146#2" to="35631490"/>
    <trip id="183" depart="72.00" from="302965727#3" to="376542025#0"/>
    <trip id="184" depart="72.00" from="258647767#0" to="535566686"/>
    <trip id="185" depart="72.00" from="-24683548" to="-24405506#2"/>
    <trip id="186" depart="73.00" from="-24405507#2" to="534900637#0"/>
    <trip id="187" depart="73.00" from="-234800473#0" to="-357850162"/>
    <trip id="188" depart="73.00" from="25054868" to="25054590#0"/>
    <trip id="189" depart="74.00" from="376539776" to="-431775779"/>
    <trip id="190" depart="74.00" from="424685850#1" to="-24405514#1"/>
    <trip id="193" depart="75.00" from="25054599" to="24791335#1"/>
    <trip id="194" depart="75.00" from="-1205662257#3" to="25042920#1"/>
    <trip id="195" depart="76.00" from="24405512#1" to="897097402#1"/>
    <trip id="196" depart="76.00" from="24683540#2" to="897097401#1"/>
    <trip id="197" depart="76.00" from="-337312509#1" to="-1219475773"/>
    <trip id="198" depart="77.00" from="-1205118878" to="24160008"/>
    <trip id="199" depart="78.00" from="25046393#1" to="24683538#1"/>
    <trip id="200" depart="78.00" from="24405501#0" to="24683535#3"/>
    <trip id="201" depart="78.00" from="199881958" to="24160011"/>
    <trip id="202" depart="79.00" from="-25054217#2" to="668298284"/>
    <trip id="203" depart="79.00" from="24683543#0" to="-24683520"/>
    <trip id="205" depart="79.00" from="1168109380" to="-25035600#0"/>
    <trip id="207" depart="81.00" from="-24699018#2" to="1205679701"/>
    <trip id="208" depart="81.00" from="179181038#4" to="429529116"/>
    <trip id="209" depart="82.00" from="24683534#0" to="25042920#3"/>
    <trip id="210" depart="82.00" from="-302965727#11" to="24699028"/>
    <trip id="211" depart="83.00" from="-24699028" to="-25043046#0"/>
    <trip id="212" depart="83.00" from="334561591#5" to="25054584#0"/>
    <trip id="214" depart="83.00" from="-432775731#0" to="-24791352#0"/>
    <trip id="215" depart="84.00" from="535922409" to="-24791354#2"/>
    <trip id="216" depart="84.00" from="999609876" to="-1168287295"/>
    <trip id="217" depart="84.00" from="894591132" to="-668297057"/>
    <trip id="218" depart="84.00" from="357850162" to="25042897"/>
    <trip id="219" depart="85.00" from="-25046412#4" to="24405490#2"/>
    <trip id="220" depart="85.00" from="-334559786" to="-31896236#0"/>
    <trip id="221" depart="86.00" from="376543466#2" to="-334561891#0"/>
    <trip id="222" depart="87.00" from="25111487#0" to="24699019#0"/>
    <trip id="223" depart="87.00" from="-668297056" to="376539201"/>
    <trip id="224" depart="87.00" from="302965728#5" to="-1094541188#1"/>
    <trip id="225" depart="87.00" from="-376543464#0" to="-25054223#1"/>
    <trip id="226" depart="87.00" from="-24699017#0" to="-679902284#0"/>
    <trip id="227" depart="88.00" from="25043183#1" to="535554959#0"/>
    <trip id="228" depart="88.00" from="-1205667519" to="805508870#3"/>
    <trip id="230" depart="88.00" from="1094316873" to="-25035451#1"/>
    <trip id="231" depart="89.00" from="-25111486" to="1190782924"/>
    <trip id="232" depart="90.00" from="-24405491" to="-420905045#1"/>
    <trip id="233" depart="90.00" from="-24791353" to="334560315#1"/>
    <trip id="234" depart="91.00" from="-895216896#0" to="-431827304#0"/>
    <trip id="235" depart="91.00" from="-305589151#1" to="25044575"/>
    <trip id="237" depart="92.00" from="-1190782925" to="-31896236#1"/>
    <trip id="238" depart="92.00" from="-25043044#1" to="-432770520#5"/>
    <trip id="239" depart="92.00" from="199881969#1" to="768280998"/>
    <trip id="240" depart="92.00" from="293256888" to="431827305"/>
    <trip id="241" depart="93.00" from="-895462378#0" to="25042909"/>
    <trip id="243" depart="93.00" from="-754427032#1" to="24683515#3"/>
    <trip id="244" depart="93.00" from="-25054220#1" to="24791335#3"/>
    <trip id="245" depart="95.00" from="-1203377496" to="25054598#1"/>
    <trip id="246" depart="95.00" from="25044937" to="314066421"/>
    <trip id="247" depart="96.00" from="24683557#1" to="432770520#5"/>
    <trip id="248" depart="96.00" from="293255730#0" to="750058067#0"/>
    <trip id="249" depart="97.00" from="24683557#2" to="302965727#9"/>
    <trip id="250" depart="98.00" from="-24405520#1" to="-293255544#2"/>
    <trip id="252" depart="98.00" from="357850162" to="-1168542195#0"/>
    <trip id="253" depart="99.00" from="-24683539" to="-754427031#0"/>
    <trip id="254" depart="99.00" from="-1205439393" to="24405519#2"/>
    <trip id="255" depart="100.00" from="25045240" to="293256120#0"/>
    <trip id="256" depart="100.00" from="637275764#1" to="-24699023"/>
    <trip id="257" depart="100.00" from="337623511#0" to="24699028"/>
    <trip id="258" depart="100.00" from="-25046390#1" to="-25046407#2"/>
    <trip id="259" depart="100.00" from="1079848665" to="-895216896#0"/>
    <trip id="260" depart="100.00" from="25042906#1" to="25054218"/>
    <trip id="261" depart="101.00" from="-432768291#4" to="-24791386"/>
    <trip id="262" depart="102.00" from="-372239264#3" to="1190782925"/>
    <trip id="263" depart="102.00" from="-626957569#1" to="199881960#1"/>
    <trip id="264" depart="102.00" from="-25054585#1" to="-24683559#0"/>
    <trip id="265" depart="102.00" from="372239264#1" to="420905011#0"/>
    <trip id="266" depart="103.00" from="-25046390#0" to="-432770521#1"/>
    <trip id="267" depart="103.00" from="-432770523" to="-431827304#3"/>
    <trip id="268" depart="103.00" from="302965727#12" to="1168542193#0"/>
    <trip id="269" depart="104.00" from="-24683555" to="431994307"/>
    <trip id="270" depart="104.00" from="-25054596#4" to="24683537"/>
    <trip id="271" depart="105.00" from="-25111440#1" to="24735612#0"/>
    <trip id="272" depart="105.00" from="754427031#1" to="-276636146#4"/>
    <trip id="273" depart="105.00" from="-432248099#5" to="-24735612#0"/>
    <trip id="274" depart="105.00" from="-25111440#1" to="-24405506#1"/>
    <trip id="275" depart="106.00" from="-293255544#1" to="-432768291#4"/>
    <trip id="276" depart="106.00" from="895216913#0" to="24405516#0"/>
    <trip id="277" depart="107.00" from="-1168542193#1" to="25042891#3"/>
    <trip id="278" depart="107.00" from="-895216938" to="25046391#0"/>
    <trip id="279" depart="107.00" from="-24791345#0" to="-376539196#3"/>
    <trip id="280" depart="108.00" from="679900451#1" to="-432248099#1"/>
    <trip id="281" depart="108.00" from="25054223#2" to="24699025#9"/>
    <trip id="282" depart="109.00" from="25043044#0" to="-25046431"/>
    <trip id="283" depart="110.00" from="25054602#2" to="-24405509#1"/>
    <trip id="284" depart="110.00" from="-24405516#2" to="-999609879"/>
    <trip id="285" depart="110.00" from="-507058716" to="-1201844353"/>
    <trip id="286" depart="110.00" from="24405503#2" to="-1094251931"/>
    <trip id="287" depart="110.00" from="-25035600#1" to="1094268111"/>
    <trip id="289" depart="111.00" from="293255911#1" to="-895263280"/>
    <trip id="290" depart="111.00" from="432768291#0" to="-24683550#2"/>
    <trip id="291" depart="112.00" from="25046413" to="-432770531#0"/>
    <trip id="292" depart="113.00" from="-25043044#1" to="24405514#0"/>
    <trip id="293" depart="113.00" from="-24405511#3" to="-376543465#0"/>
    <trip id="294" depart="114.00" from="24160013" to="-1168542192#0"/>
    <trip id="295" depart="115.00" from="-25042919#0" to="-1168305905#0"/>
    <trip id="296" depart="115.00" from="24683559#0" to="25044578"/>
    <trip id="297" depart="116.00" from="24683550#0" to="895263280"/>
    <trip id="299" depart="117.00" from="-24405490#0" to="24405521#2"/>
    <trip id="300" depart="117.00" from="534900637#0" to="-25046420"/>
    <trip id="301" depart="117.00" from="-25042915#1" to="31895149#2"/>
    <trip id="302" depart="118.00" from="293256120#2" to="-24791344#1"/>
    <trip id="303" depart="119.00" from="420905006#1" to="-199881967#1"/>
    <trip id="304" depart="119.00" from="25042900#2" to="334560315#1"/>
    <trip id="305" depart="120.00" from="431994306" to="107938371"/>
    <trip id="306" depart="120.00" from="-376543476#0" to="432777385#0"/>
    <trip id="307" depart="120.00" from="-1094282281" to="302965727#5"/>
    <trip id="308" depart="120.00" from="276638492#1" to="-25054591#0"/>
    <trip id="309" depart="121.00" from="-24699045#5" to="-25046393#1"/>
    <trip id="310" depart="121.00" from="25054138#1" to="-24683540#1"/>
    <trip id="311" depart="121.00" from="-24683543#1" to="-376543474#2"/>
    <trip id="312" depart="121.00" from="276638492#0" to="24791355#1"/>
    <trip id="314" depart="122.00" from="-25054228#4" to="-25042891#2"/>
    <trip id="315" depart="122.00" from="1094316873" to="-24683560#0"/>
    <trip id="316" depart="122.00" from="-25044579" to="-24791344#1"/>
    <trip id="317" depart="122.00" from="24735613" to="25054582#3"/>
    <trip id="318" depart="123.00" from="25054594" to="1205439393"/>
    <trip id="319" depart="123.00" from="25042922#0" to="24683547#1"/>
    <trip id="320" depart="124.00" from="-1168542192#1" to="-199836127#0"/>
    <trip id="321" depart="124.00" from="-25046391#0" to="-107938350#0"/>
    <trip id="322" depart="124.00" from="238875364#2" to="-24405506#0"/>
    <trip id="323" depart="124.00" from="432768291#1" to="24791345#4"/>
    <trip id="324" depart="125.00" from="27782156" to="1205693235"/>
    <trip id="326" depart="126.00" from="-1190782921" to="1205167140"/>
    <trip id="327" depart="126.00" from="-24683524#1" to="429529117#1"/>
    <trip id="328" depart="126.00" from="25054877" to="302965727#4"/>
    <trip id="329" depart="126.00" from="1168542194#0" to="25042916#0"/>
    <trip id="330" depart="127.00" from="-1204059062" to="27347564#4"/>
    <trip id="331" depart="127.00" from="431827303" to="-24783924#6"/>
    <trip id="332" depart="127.00" from="24791575#1" to="538972997#1"/>
    <trip id="333" depart="128.00" from="-24735608#1" to="626957570#0"/>
    <trip id="335" depart="129.00" from="538972998#1" to="-25054871#0"/>
    <trip id="336" depart="129.00" from="376543471" to="25054588#1"/>
    <trip id="337" depart="130.00" from="1094261603#3" to="-24405489#1"/>
    <trip id="338" depart="130.00" from="-80477039#1" to="293255730#1"/>
    <trip id="339" depart="130.00" from="-432807559#1" to="24735616#1"/>
    <trip id="340" depart="130.00" from="-25042891#0" to="1168273992"/>
    <trip id="341" depart="130.00" from="-24791355#1" to="179181038#6"/>
    <trip id="342" depart="130.00" from="-431827304#1" to="293255544#3"/>
    <trip id="344" depart="132.00" from="1205665802" to="1205439393"/>
    <trip id="346" depart="133.00" from="25111487#0" to="754427034#1"/>
    <trip id="347" depart="133.00" from="-895462373" to="372239259#2"/>
    <trip id="348" depart="133.00" from="-24683527#1" to="25054138#5"/>
    <trip id="349" depart="134.00" from="-25042914#2" to="25111440#2"/>
    <trip id="350" depart="134.00" from="-334549231#1" to="897097402#1"/>
    <trip id="352" depart="135.00" from="-24791355#1" to="25043787"/>
    <trip id="353" depart="135.00" from="1168541555#0" to="-293256888"/>
    <trip id="354" depart="136.00" from="-24405497" to="-25046421"/>
    <trip id="356" depart="136.00" from="-24735612#3" to="-24699027#9"/>
    <trip id="357" depart="137.00" from="25042914#3" to="626957571#0"/>
    <trip id="358" depart="138.00" from="-1168541555#2" to="25035451#1"/>
    <trip id="359" depart="138.00" from="302965727#13" to="-1201620878"/>
    <trip id="360" depart="139.00" from="24683534#0" to="-107938377#0"/>
    <trip id="361" depart="139.00" from="24699027#3" to="24735612#1"/>
    <trip id="362" depart="139.00" from="24699027#7" to="-276638494#1"/>
    <trip id="363" depart="140.00" from="-1211392025" to="-754427033"/>
    <trip id="365" depart="140.00" from="24699025#2" to="-25046819#0"/>
    <trip id="366" depart="141.00" from="-1190782926" to="-25045239#0"/>
    <trip id="367" depart="141.00" from="-24699017#2" to="1168542192#1"/>
    <trip id="368" depart="141.00" from="31896632" to="1206753903"/>
    <trip id="369" depart="142.00" from="199881965" to="-25035600#0"/>
    <trip id="370" depart="142.00" from="31896236#0" to="-334549231#1"/>
    <trip id="371" depart="142.00" from="-293255911#4" to="-98231048#2"/>
    <trip id="372" depart="143.00" from="24791350#3" to="1223982209"/>
    <trip id="373" depart="143.00" from="668297058" to="-754427029#0"/>
    <trip id="374" depart="143.00" from="107938377#2" to="1168287297#0"/>
    <trip id="375" depart="143.00" from="626957566" to="25042889#7"/>
    <trip id="376" depart="144.00" from="258647767#1" to="24683559#1"/>
    <trip id="377" depart="144.00" from="1205667518" to="-24683534#0"/>
    <trip id="378" depart="144.00" from="-276636146#1" to="97293743#1"/>
    <trip id="379" depart="145.00" from="-24699025#6" to="432770520#2"/>
    <trip id="380" depart="145.00" from="24683612#2" to="-302965727#11"/>
    <trip id="383" depart="146.00" from="-25054602#0" to="1205167140"/>
    <trip id="384" depart="147.00" from="-292747017#1" to="-1203849762"/>
    <trip id="386" depart="147.00" from="-25054223#3" to="-24683552"/>
    <trip id="387" depart="148.00" from="-1380250677" to="-25054871#0"/>
    <trip id="388" depart="148.00" from="-24699030#2" to="1201829324"/>
    <trip id="389" depart="149.00" from="-24683560#3" to="24683540#1"/>
    <trip id="390" depart="149.00" from="-25054220#1" to="1201877667"/>
    <trip id="391" depart="149.00" from="-432768291#2" to="1201612998"/>
    <trip id="392" depart="150.00" from="24791344#1" to="895263280"/>
    <trip id="395" depart="150.00" from="98246944#19" to="535922410-AddedOnRampEdge"/>
    <trip id="396" depart="150.00" from="-25042893#0" to="-24735603#0"/>
    <trip id="397" depart="151.00" from="432777386#3" to="276636146#1"/>
    <trip id="398" depart="151.00" from="24160007#2" to="-25044576#0"/>
    <trip id="399" depart="151.00" from="-24783924#5" to="25042887#3"/>
    <trip id="400" depart="151.00" from="24735618#2" to="24683553"/>
    <trip id="401" depart="151.00" from="-25043042" to="992340212#1"/>
    <trip id="402" depart="152.00" from="25044580" to="457320396#4"/>
    <trip id="405" depart="152.00" from="-24699041#3" to="314066420#2"/>
    <trip id="406" depart="153.00" from="-668298285#1" to="-376543466#2"/>
    <trip id="407" depart="153.00" from="229472853#1" to="-24699019#1"/>
    <trip id="408" depart="154.00" from="-24699031#1" to="432777386#3"/>
    <trip id="409" depart="154.00" from="24160014" to="-897097401#0"/>
    <trip id="410" depart="155.00" from="276636146#4" to="-376543464#1"/>
    <trip id="411" depart="155.00" from="-895216896#0" to="1380250678"/>
    <trip id="412" depart="155.00" from="293255909#1" to="1168305905#0"/>
    <trip id="413" depart="156.00" from="376543476#1" to="429690523"/>
    <trip id="414" depart="157.00" from="25042894" to="25054219#1"/>
    <trip id="415" depart="157.00" from="-25042900#3" to="432768291#3"/>
    <trip id="416" depart="157.00" from="25042906#6" to="-889497761"/>
    <trip id="417" depart="157.00" from="-1206753904#1" to="-357850163#1"/>
    <trip id="418" depart="158.00" from="372239259#0" to="-909187260"/>
    <trip id="419" depart="158.00" from="25042904" to="1094298146"/>
    <trip id="420" depart="158.00" from="24735603#0" to="534799444#3-AddedOnRampEdge"/>
    <trip id="421" depart="158.00" from="25054870#0" to="25054228#2"/>
    <trip id="422" depart="158.00" from="24683525#1" to="-24735603#0"/>
    <trip id="423" depart="158.00" from="895216941" to="24405510"/>
    <trip id="425" depart="159.00" from="25046417#1" to="-24405506#0"/>
    <trip id="427" depart="159.00" from="854227944" to="-276636146#3"/>
    <trip id="428" depart="161.00" from="-25111486" to="-357850163#0"/>
    <trip id="429" depart="161.00" from="25044934#0" to="-652107161"/>
    <trip id="430" depart="161.00" from="-1206753903" to="-24783924#10"/>
    <trip id="431" depart="161.00" from="-25042900#3" to="25054142#1"/>
    <trip id="433" depart="161.00" from="25042906#0" to="24683544"/>
    <trip id="434" depart="161.00" from="-302965727#14" to="637275763#1"/>
    <trip id="435" depart="162.00" from="-999609883#1" to="-754427032#1"/>
    <trip id="436" depart="162.00" from="25054592#0" to="24405490#0"/>
    <trip id="437" depart="162.00" from="24683527#1" to="-107938350#3"/>
    <trip id="439" depart="163.00" from="-1168544743#1" to="-25046425"/>
    <trip id="440" depart="164.00" from="-24699027#8" to="24699022#2"/>
    <trip id="441" depart="164.00" from="24735603#0" to="-754427032#1"/>
    <trip id="442" depart="166.00" from="1203849761" to="25042906#6"/>
    <trip id="443" depart="166.00" from="1168801372" to="279628270"/>
    <trip id="445" depart="166.00" from="-25054217#2" to="893289558"/>
    <trip id="446" depart="167.00" from="-372239261#0" to="1201838046"/>
    <trip id="447" depart="168.00" from="24791335#3" to="-25054146#3"/>
    <trip id="448" depart="168.00" from="535922410" to="-24683549#2"/>