<?xml version="1.0" encoding="UTF-8"?>

<!-- generated on 2025-05-14 00:42:28.620525 by randomTrips.py 9a83456
<configuration>
    <net-file value="D:\TrAD-Quito\sumo\input\simon_bolivar.net.xml"/>
    <output-trip-file value="D:\TrAD-Quito\sumo\input\trips_type2_500.trips.xml"/>
    <fringe-factor value="3"/>
    <validate value="True"/>
    <insertion-density value="11.0"/>
    <binomial value="100"/>
</configuration>
-->

<!-- generated on 2025-05-14 00:42:24 by Eclipse SUMO duarouter Version 1.18.0
<configuration xmlns:xsi="http://www.w3.org/2001/XMLSchema-instance" xsi:noNamespaceSchemaLocation="http://sumo.dlr.de/xsd/duarouterConfiguration.xsd">

    <input>
        <net-file value="D:\TrAD-Quito\sumo\input\simon_bolivar.net.xml"/>
        <route-files value="D:\TrAD-Quito\sumo\input\trips_type2_500.trips.xml"/>
    </input>

    <output>
        <output-file value="D:\TrAD-Quito\sumo\input\trips_type2_500.trips.xml.tmp"/>
        <alternatives-output value="NUL"/>
        <write-trips value="true"/>
    </output>

    <time>
        <begin value="0.0"/>
        <end value="3600.0"/>
    </time>

    <report>
        <no-warnings value="true"/>
        <ignore-errors value="true"/>
        <no-step-log value="true"/>
    </report>

</configuration>
-->

<routes xmlns:xsi="http://www.w3.org/2001/XMLSchema-instance" xsi:noNamespaceSchemaLocation="http://sumo.dlr.de/xsd/routes_file.xsd">
    <trip id="0" depart="0.00" from="293256120#3" to="25042922#3"/>
    <trip id="1" depart="1.00" from="-25111439#1" to="-1168287297#3"/>
    <trip id="2" depart="2.00" from="31895149#0" to="-372239271"/>
    <trip id="3" depart="2.00" from="25054599" to="24735612#3"/>
    <trip id="4" depart="2.00" from="-1205679702#0" to="431994307"/>
    <trip id="5" depart="3.00" from="535554959#1" to="24405487#2"/>
    <trip id="6" depart="3.00" from="-25046433#1" to="1094268117"/>
    <trip id="7" depart="4.00" from="25054217#0" to="25054595#2"/>
    <trip id="8" depart="4.00" from="-302965728#4" to="25054216#1"/>
    <trip id="11" depart="8.00" from="293256038" to="432775731#1"/>
    <trip id="12" depart="10.00" from="376543476#3" to="-24791345#1"/>
    <trip id="13" depart="11.00" from="424685850#1" to="24683519#1"/>
    <trip id="14" depart="11.00" from="-25054218" to="-25046811#1"/>
    <trip id="15" depart="11.00" from="25054142#2" to="-25042926"/>
    <trip id="16" depart="13.00" from="-1205693235" to="-276636146#1"/>
    <trip id="18" depart="18.00" from="24405487#0" to="-24699027#5"/>
    <trip id="19" depart="19.00" from="-1168305905#1" to="-372239268"/>
    <trip id="20" depart="20.00" from="1094261605" to="-668297058"/>
    <trip id="21" depart="20.00" from="179181038#3" to="-1094268118#1"/>
    <trip id="22" depart="21.00" from="-24699039#1" to="1205679701"/>
    <trip id="23" depart="21.00" from="-25054582#0" to="-432777386#6"/>
    <trip id="24" depart="22.00" from="-25044575" to="1216978709#0"/>
    <trip id="25" depart="23.00" from="-24683538#1" to="31896253"/>
    <trip id="26" depart="24.00" from="25054870#2" to="25046407#2"/>
    <trip id="27" depart="24.00" from="854227946#3" to="-25046407#1"/>
    <trip id="28" depart="25.00" from="-895216931" to="-24735616#2"/>
    <trip id="29" depart="25.00" from="25042914#1" to="334559786"/>
    <trip id="30" depart="25.00" from="24735611#0" to="1168283948"/>
    <trip id="31" depart="26.00" from="-24791335#1" to="24683515#1"/>
    <trip id="32" depart="26.00" from="-431981406" to="-25054591#0"/>
    <trip id="33" depart="26.00" from="24783924#4" to="420905045#0"/>
    <trip id="35" depart="29.00" from="-420904972#1" to="25046407#2"/>
    <trip id="36" depart="31.00" from="432777386#3" to="24791336#3"/>
    <trip id="37" depart="31.00" from="-25043045#1" to="302965727#11"/>
    <trip id="38" depart="32.00" from="-25046388" to="25054228#4"/>
    <trip id="39" depart="33.00" from="24791575#1" to="432777386#4"/>
    <trip id="40" depart="34.00" from="-1380250678" to="24699027#8"/>
    <trip id="41" depart="36.00" from="24791354#0" to="1168305904"/>
    <trip id="42" depart="36.00" from="-1205367605" to="25042887#0"/>
    <trip id="43" depart="37.00" from="24683527#4" to="24160013"/>
    <trip id="44" depart="37.00" from="-25042922#1" to="-25054218"/>
    <trip id="45" depart="39.00" from="24735618#0" to="25042909"/>
    <trip id="46" depart="39.00" from="-1380250679#1" to="-24791345#3"/>
    <trip id="47" depart="40.00" from="-24699025#3" to="98246944#9"/>
    <trip id="48" depart="40.00" from="357850162" to="-25111441#1"/>
    <trip id="49" depart="42.00" from="314066419" to="420905006#1"/>
    <trip id="50" depart="42.00" from="534900637#0" to="668298285#1"/>
    <trip id="51" depart="42.00" from="-432777383" to="-337623511#1"/>
    <trip id="52" depart="42.00" from="-376542025#0" to="-999609883#1"/>
    <trip id="53" depart="43.00" from="-1190782926" to="25111486"/>
    <trip id="55" depart="46.00" from="-421121874" to="-293256120#1"/>
    <trip id="56" depart="48.00" from="431827306#0" to="-25054596#0"/>
    <trip id="58" depart="49.00" from="25042893#1" to="-432248097#1"/>
    <trip id="59" depart="49.00" from="535910625#0" to="25042907#1"/>
    <trip id="60" depart="51.00" from="-24683554#0" to="-24791355#0"/>
    <trip id="61" depart="51.00" from="98246921" to="-909187260"/>
    <trip id="62" depart="53.00" from="805508870#1" to="334560315#1"/>
    <trip id="65" depart="55.00" from="895462378#1" to="-1205679704"/>
    <trip id="66" depart="57.00" from="25046431" to="895216895"/>
    <trip id="67" depart="58.00" from="-25044582#1" to="758831775#0"/>
    <trip id="68" depart="63.00" from="-24683535#3" to="-421121863#0"/>
    <trip id="69" depart="64.00" from="894591201" to="24791345#3"/>
    <trip id="70" depart="65.00" from="-24405511#1" to="-25042919#2"/>
    <trip id="71" depart="66.00" from="24699036#2" to="25044579"/>
    <trip id="73" depart="67.00" from="-25046406#0" to="199881963"/>
    <trip id="74" depart="70.00" from="-854227948" to="372239269#0"/>
    <trip id="75" depart="70.00" from="535922410-AddedOnRampEdge" to="1203849759"/>
    <trip id="76" depart="70.00" from="-895216916#1" to="432775732#0"/>
    <trip id="77" depart="70.00" from="-854227943#0" to="637275759"/>
    <trip id="78" depart="71.00" from="-24735616#1" to="-24683527#3"/>
    <trip id="80" depart="72.00" from="24405520#0" to="25042896#0"/>
    <trip id="81" depart="72.00" from="-25035452#1" to="-25054587#1"/>
    <trip id="82" depart="73.00" from="-25054146#2" to="35631490"/>
    <trip id="83" depart="74.00" from="302965727#3" to="376542025#0"/>
    <trip id="84" depart="74.00" from="-24683548" to="-24405506#2"/>
    <trip id="85" depart="75.00" from="-24405507#2" to="534900637#0"/>
    <trip id="86" depart="75.00" from="25054868" to="25054590#0"/>
    <trip id="87" depart="76.00" from="424685850#1" to="-24405514#1"/>
    <trip id="88" depart="78.00" from="-1205662257#3" to="25042920#1"/>
    <trip id="89" depart="78.00" from="24405512#1" to="897097402#1"/>
    <trip id="90" depart="78.00" from="24683540#2" to="897097401#1"/>
    <trip id="91" depart="79.00" from="-1205118878" to="24160008"/>
    <trip id="92" depart="80.00" from="25046393#1" to="24683538#1"/>
    <trip id="93" depart="81.00" from="-25054217#2" to="668298284"/>
    <trip id="95" depart="82.00" from="1168109380" to="-25035600#0"/>
    <trip id="97" depart="85.00" from="-302965727#11" to="24699028"/>
    <trip id="98" depart="86.00" from="535922409" to="-24791354#2"/>
    <trip id="99" depart="86.00" from="999609876" to="-1168287295"/>
    <trip id="100" depart="87.00" from="357850162" to="25042897"/>
    <trip id="101" depart="87.00" from="-334559786" to="-31896236#0"/>
    <trip id="102" depart="88.00" from="376543466#2" to="-334561891#0"/>
    <trip id="103" depart="89.00" from="25111487#0" to="24699019#0"/>
    <trip id="104" depart="89.00" from="-668297056" to="376539201"/>
    <trip id="105" depart="90.00" from="-376543464#0" to="-25054223#1"/>
    <trip id="107" depart="91.00" from="-25111486" to="1190782924"/>
    <trip id="108" depart="92.00" from="-24405491" to="-420905045#1"/>
    <trip id="109" depart="94.00" from="-25043044#1" to="-432770520#5"/>
    <trip id="110" depart="95.00" from="293256888" to="431827305"/>
    <trip id="111" depart="95.00" from="-895462378#0" to="25042909"/>
    <trip id="113" depart="96.00" from="-25054220#1" to="24791335#3"/>
    <trip id="114" depart="101.00" from="357850162" to="-1168542195#0"/>
    <trip id="115" depart="102.00" from="-24683539" to="-754427031#0"/>
    <trip id="116" depart="102.00" from="-1205439393" to="24405519#2"/>
    <trip id="117" depart="103.00" from="25042906#1" to="25054218"/>
    <trip id="118" depart="104.00" from="-432768291#4" to="-24791386"/>
    <trip id="119" depart="105.00" from="-626957569#1" to="199881960#1"/>
    <trip id="120" depart="105.00" from="-25054585#1" to="-24683559#0"/>
    <trip id="121" depart="105.00" from="-25046390#0" to="-432770521#1"/>
    <trip id="122" depart="106.00" from="-432770523" to="-431827304#3"/>
    <trip id="123" depart="107.00" from="-24683555" to="431994307"/>
    <trip id="124" depart="110.00" from="-1168542193#1" to="25042891#3"/>
    <trip id="125" depart="111.00" from="25054223#2" to="24699025#9"/>
    <trip id="126" depart="113.00" from="334561891#0" to="-1168287297#1"/>
    <trip id="127" depart="114.00" from="293255911#1" to="-895263280"/>
    <trip id="128" depart="116.00" from="-25043044#1" to="24405514#0"/>
    <trip id="129" depart="116.00" from="-24405511#3" to="-376543465#0"/>
    <trip id="130" depart="119.00" from="24683559#0" to="25044578"/>
    <trip id="132" depart="120.00" from="-25042915#1" to="31895149#2"/>
    <trip id="133" depart="123.00" from="420905006#1" to="-199881967#1"/>
    <trip id="134" depart="124.00" from="-1094282281" to="302965727#5"/>
    <trip id="135" depart="124.00" from="276638492#1" to="-25054591#0"/>
    <trip id="136" depart="124.00" from="-24699045#5" to="-25046393#1"/>
    <trip id="137" depart="126.00" from="-25044579" to="-24791344#1"/>
    <trip id="138" depart="127.00" from="25042922#0" to="24683547#1"/>
    <trip id="139" depart="127.00" from="-1168542192#1" to="-199836127#0"/>
    <trip id="140" depart="127.00" from="-637275763#0" to="25046397#1"/>
    <trip id="141" depart="129.00" from="27782156" to="1205693235"/>
    <trip id="142" depart="129.00" from="-24683524#1" to="429529117#1"/>
    <trip id="143" depart="130.00" from="25054877" to="302965727#4"/>
    <trip id="144" depart="130.00" from="431827303" to="-24783924#6"/>
    <trip id="145" depart="132.00" from="-24735608#1" to="626957570#0"/>
    <trip id="147" depart="133.00" from="376543471" to="25054588#1"/>
    <trip id="148" depart="133.00" from="-80477039#1" to="293255730#1"/>
    <trip id="150" depart="135.00" from="1205665802" to="1205439393"/>
    <trip id="152" depart="136.00" from="25111487#0" to="754427034#1"/>
    <trip id="153" depart="137.00" from="-895462373" to="372239259#2"/>
    <trip id="154" depart="138.00" from="-25042914#2" to="25111440#2"/>
    <trip id="155" depart="138.00" from="-334549231#1" to="897097402#1"/>
    <trip id="156" depart="139.00" from="1168541555#0" to="-293256888"/>
    <trip id="158" depart="140.00" from="-24735612#3" to="-24699027#9"/>
    <trip id="159" depart="141.00" from="25042914#3" to="626957571#0"/>
    <trip id="160" depart="143.00" from="-25044579" to="-25054877"/>
    <trip id="161" depart="143.00" from="24699027#7" to="-276638494#1"/>
    <trip id="163" depart="145.00" from="24699025#2" to="-25046819#0"/>
    <trip id="164" depart="146.00" from="-293255911#4" to="-98231048#2"/>
    <trip id="165" depart="147.00" from="24791350#3" to="1223982209"/>
    <trip id="166" depart="149.00" from="1205667518" to="-24683534#0"/>
    <trip id="168" depart="151.00" from="-292747017#1" to="-1203849762"/>
    <trip id="170" depart="152.00" from="-25054223#3" to="-24683552"/>
    <trip id="171" depart="152.00" from="-1380250677" to="-25054871#0"/>
    <trip id="172" depart="154.00" from="-432768291#2" to="1201612998"/>
    <trip id="173" depart="154.00" from="24791344#1" to="895263280"/>
    <trip id="174" depart="156.00" from="-24783924#5" to="25042887#3"/>
    <trip id="175" depart="156.00" from="-25043042" to="992340212#1"/>
    <trip id="178" depart="166.00" from="-1206753903" to="-24783924#10"/>
    <trip id="180" depart="166.00" from="-302965727#14" to="637275763#1"/>
    <trip id="181" depart="167.00" from="-999609883#1" to="-754427032#1"/>
    <trip id="182" depart="167.00" from="25054592#0" to="24405490#0"/>
    <trip id="183" depart="167.00" from="-637275763#0" to="-24683549#0"/>
    <trip id="185" depart="169.00" from="24735603#0" to="-754427032#1"/>
    <trip id="186" depart="172.00" from="-372239261#0" to="1201838046"/>
    <trip id="187" depart="173.00" from="-24683539" to="-27347564#3"/>
    <trip id="188" depart="174.00" from="-432770521#2" to="24405521#2"/>
    <trip id="189" depart="175.00" from="432248099#0" to="24683531"/>
    <trip id="190" depart="176.00" from="376543472#0" to="-24791339#0"/>
    <trip id="191" depart="178.00" from="1205662259#5" to="-25045242#1"/>
    <trip id="192" depart="179.00" from="25054591#2" to="-24699030#0"/>
    <trip id="193" depart="179.00" from="292747017#1" to="-25043046#0"/>
    <trip id="194" depart="179.00" from="-107938391#2" to="637275759"/>
    <trip id="195" depart="179.00" from="24699041#1" to="-422425537#0"/>
    <trip id="196" depart="180.00" from="432768291#6" to="24405487#1"/>
    <trip id="197" depart="181.00" from="-637275761#0" to="-372239264#2"/>
    <trip id="200" depart="183.00" from="334561591#7" to="1094298144"/>
    <trip id="201" depart="185.00" from="854227946#4" to="238875364#0"/>
    <trip id="202" depart="186.00" from="432807560" to="-357850163#0"/>
    <trip id="203" depart="186.00" from="-24683549#0" to="107938391#1"/>
    <trip id="204" depart="186.00" from="-24699041#6" to="1205693236"/>
    <trip id="205" depart="187.00" from="25054583#1" to="-24405507#1"/>
    <trip id="206" depart="187.00" from="-854227951#1" to="24699028"/>
    <trip id="207" depart="188.00" from="-25043184#1" to="-25054871#0"/>
    <trip id="208" depart="189.00" from="-1205370744" to="-25042911#0"/>
    <trip id="209" depart="189.00" from="-24791341" to="-25054145#0"/>
    <trip id="210" depart="189.00" from="1168283956" to="24683535#0"/>
    <trip id="211" depart="191.00" from="1080631190" to="25046813#1"/>
    <trip id="212" depart="192.00" from="24791352#1" to="-25054591#2"/>
    <trip id="213" depart="192.00" from="668298285#0" to="1205662259#3"/>
    <trip id="214" depart="192.00" from="-24405519#3" to="-25046420"/>
    <trip id="215" depart="193.00" from="-24683540#0" to="1190782927"/>
    <trip id="216" depart="193.00" from="293255546" to="24405503#0"/>
    <trip id="218" depart="193.00" from="432807557" to="25046428"/>
    <trip id="219" depart="195.00" from="24735616#0" to="-754427033"/>
    <trip id="220" depart="195.00" from="-24735611#2" to="24791345#3"/>
    <trip id="221" depart="196.00" from="-25035451#2" to="24683514#0"/>
    <trip id="222" depart="196.00" from="25054146#0" to="98246944#17"/>
    <trip id="223" depart="196.00" from="25044930#1" to="-24699025#2"/>
    <trip id="224" depart="197.00" from="-24699034" to="-432777382"/>
    <trip id="225" depart="197.00" from="1205662258" to="-432768292#0"/>
    <trip id="226" depart="199.00" from="-1201829324" to="864273547"/>
    <trip id="227" depart="199.00" from="24405499" to="-25054584#1"/>
    <trip id="228" depart="200.00" from="-27782156" to="1205679702#1"/>
    <trip id="229" depart="201.00" from="1168287296#1" to="-431827304#2"/>
    <trip id="230" depart="202.00" from="-25044575" to="24699030#2"/>
    <trip id="231" depart="202.00" from="24699045#1" to="754427033"/>
    <trip id="232" depart="202.00" from="637275761#1" to="25054602#2"/>
    <trip id="235" depart="204.00" from="-432768292#1" to="-24405519#2"/>
    <trip id="236" depart="205.00" from="-25042926" to="652044149"/>
    <trip id="237" depart="205.00" from="-25045235#1" to="1094279093#0"/>
    <trip id="238" depart="206.00" from="-293256826#1" to="25046811#2"/>
    <trip id="239" depart="207.00" from="-895216931" to="-293256863"/>
    <trip id="240" depart="207.00" from="-1201612996" to="25046403#2"/>
    <trip id="242" depart="208.00" from="-626957566" to="25042897"/>
    <trip id="243" depart="209.00" from="25042896#1" to="-192145205"/>
    <trip id="245" depart="209.00" from="25035451#0" to="-431775780"/>
    <trip id="246" depart="210.00" from="357850162" to="27408621#0"/>
    <trip id="247" depart="210.00" from="199881969#0" to="-199881967#0"/>
    <trip id="248" depart="211.00" from="24699025#2" to="534900637#4"/>
    <trip id="249" depart="211.00" from="-1201844353" to="199568036#1"/>
    <trip id="250" depart="213.00" from="1168311253#3" to="25045239#3"/>
    <trip id="251" depart="216.00" from="999668241" to="25046817"/>
    <trip id="252" depart="217.00" from="-894591146" to="-25054599"/>
    <trip id="253" depart="217.00" from="-1094282281" to="-420905006#1"/>
    <trip id="254" depart="218.00" from="420905059" to="337623511#1"/>
    <trip id="255" depart="218.00" from="-25044928#3" to="1219469414"/>
    <trip id="256" depart="220.00" from="-199881960#1" to="24160011"/>
    <trip id="257" depart="221.00" from="-25046417#0" to="24791344#1"/>
    <trip id="258" depart="221.00" from="895216896#0" to="179181038#5"/>
    <trip id="259" depart="222.00" from="31895154" to="1207682865"/>
    <trip id="261" depart="223.00" from="535572605#1" to="-334561890"/>
    <trip id="262" depart="224.00" from="-25046412#3" to="-25044582#0"/>
    <trip id="263" depart="224.00" from="-1168542193#0" to="-24683525#1"/>
    <trip id="264" depart="224.00" from="-24792220" to="-24735603#0"/>
    <trip id="265" depart="225.00" from="-24683610#0" to="107938377#0"/>
    <trip id="267" depart="226.00" from="-432248099#2" to="-24735611#1"/>
    <trip id="268" depart="227.00" from="432777386#0" to="894591169"/>
    <trip id="269" depart="227.00" from="-1205439393" to="-24791335#0"/>
    <trip id="270" depart="228.00" from="-24405501#1" to="-431775781"/>
    <trip id="271" depart="229.00" from="276623569" to="-432248096"/>
    <trip id="272" depart="230.00" from="302965727#4" to="25042911#2"/>
    <trip id="273" depart="231.00" from="650356319" to="421121973"/>
    <trip id="274" depart="231.00" from="-302965727#11" to="25044931#0"/>
    <trip id="275" depart="232.00" from="-25046814#1" to="24683551#0"/>
    <trip id="276" depart="233.00" from="1094268118#0" to="24699032#1"/>
    <trip id="277" depart="234.00" from="-754427034#1" to="-305589151#1"/>
    <trip id="279" depart="234.00" from="98246944#9" to="-1168541555#0"/>
    <trip id="281" depart="236.00" from="98246944#13" to="-1092457245"/>
    <trip id="282" depart="240.00" from="25054602#1" to="1201612998"/>
    <trip id="283" depart="240.00" from="24683535#3" to="1168273992-AddedOffRampEdge"/>
    <trip id="284" depart="241.00" from="-432770530" to="-25043046#0"/>
    <trip id="285" depart="242.00" from="25054590#1" to="293255544#2"/>
    <trip id="286" depart="243.00" from="-25046819#1" to="535554959#1"/>
    <trip id="288" depart="245.00" from="-334549231#0" to="-668298286"/>
    <trip id="289" depart="246.00" from="-599923153#1" to="-24683540#0"/>
    <trip id="290" depart="247.00" from="24405489#0" to="-24791335#3"/>
    <trip id="291" depart="249.00" from="-24791337" to="457320396#1"/>
    <trip id="293" depart="254.00" from="-24699044#0" to="1080631196"/>
    <trip id="294" depart="254.00" from="421121863#2" to="535910621#2"/>
    <trip id="295" depart="255.00" from="-199568036#1" to="-894591196"/>
    <trip id="296" depart="256.00" from="-24699032#1" to="-432770520#5"/>
    <trip id="297" depart="257.00" from="25045241" to="1205367604"/>
    <trip id="298" depart="258.00" from="-25044934#3" to="24791336#3"/>
    <trip id="299" depart="259.00" from="-1205370744" to="25042923#1"/>
    <trip id="300" depart="259.00" from="25044937" to="-24791342#2"/>
    <trip id="301" depart="261.00" from="-432807559#2" to="-24405520#0"/>
    <trip id="303" depart="264.00" from="-1216978711" to="-293255544#3"/>
    <trip id="304" depart="264.00" from="-25054587#1" to="-1205662259#5"/>
    <trip id="305" depart="264.00" from="25054138#3" to="276636146#1"/>
    <trip id="306" depart="264.00" from="652088615#1-AddedOffRampEdge" to="-25111440#0"/>
    <trip id="307" depart="266.00" from="429690525" to="24699025#10"/>
    <trip id="308" depart="268.00" from="24699025#7" to="-432768291#0"/>
    <trip id="310" depart="269.00" from="432770526#1" to="25042885"/>
    <trip id="311" depart="270.00" from="-24683527#0" to="-24683560#2"/>
    <trip id="312" depart="270.00" from="25054585#2" to="1201620878"/>
    <trip id="313" depart="271.00" from="1168273992" to="-293256826#1"/>
    <trip id="314" depart="271.00" from="-107938377#2" to="-25054595#5"/>
    <trip id="315" depart="272.00" from="1094268118#0" to="-25054145#0"/>
    <trip id="316" depart="273.00" from="-25043184#1" to="-637275764#0"/>
    <trip id="317" depart="274.00" from="-24735618#0" to="1205439393"/>
    <trip id="318" depart="275.00" from="-24791335#3" to="25042912#0"/>
    <trip id="319" depart="275.00" from="1168273992-AddedOffRampEdge" to="25045239#3"/>
    <trip id="320" depart="275.00" from="25035600#0" to="-199881960#1"/>
    <trip id="321" depart="276.00" from="1190782923" to="-432248099#5"/>
    <trip id="322" depart="276.00" from="25054585#2" to="432248096"/>
    <trip id="323" depart="276.00" from="376543465#0" to="-372239261#1"/>
    <trip id="324" depart="277.00" from="-24699045#0" to="-25111441#0"/>
    <trip id="325" depart="278.00" from="999609876" to="1203849763"/>
    <trip id="326" depart="279.00" from="894591131" to="-302965728#1"/>
    <trip id="328" depart="282.00" from="-1168541555#0" to="1205662257#4"/>
    <trip id="329" depart="284.00" from="98246944#9" to="421121876#1"/>
    <trip id="330" depart="284.00" from="-1094268118#1" to="107938343"/>
    <trip id="332" depart="287.00" from="432777386#0" to="25054223#3"/>
    <trip id="333" depart="287.00" from="-24783924#10" to="-25054591#1"/>
    <trip id="334" depart="288.00" from="1168798714" to="-25044928#2"/>
    <trip id="335" depart="289.00" from="1380250679#0" to="1094268120"/>
    <trip id="336" depart="290.00" from="-25054146#2" to="293256120#0"/>
    <trip id="339" depart="291.00" from="-1094268112" to="-376543465#0"/>
    <trip id="340" depart="293.00" from="-334561891#1" to="25046407#0"/>
    <trip id="341" depart="293.00" from="-1216978711" to="-24791350#3"/>
    <trip id="342" depart="295.00" from="-1100897258" to="-897097402#0"/>
    <trip id="343" depart="296.00" from="894591163#2" to="-754427034#0"/>
    <trip id="344" depart="296.00" from="-25054146#1" to="25111440#2"/>
    <trip id="345" depart="297.00" from="-24405509#0" to="-431827304#6"/>
    <trip id="346" depart="297.00" from="894591163#0" to="1087552158"/>
    <trip id="347" depart="298.00" from="25046391#0" to="25042896#3"/>
    <trip id="348" depart="298.00" from="431827302#0" to="-25054146#0"/>
    <trip id="349" depart="299.00" from="457320396#7" to="1205693236"/>
    <trip id="350" depart="300.00" from="-25043182#1" to="376543474#4"/>
    <trip id="351" depart="300.00" from="25044928#3" to="-432248099#1"/>
    <trip id="352" depart="300.00" from="-25042920#2" to="1168283948"/>
    <trip id="353" depart="302.00" from="98246944#13-AddedOffRampEdge" to="25046813#2"/>
    <trip id="354" depart="303.00" from="24791354#1" to="-25054595#1"/>
    <trip id="355" depart="303.00" from="-25042905#2" to="1219469414"/>
    <trip id="356" depart="304.00" from="-24683612#0" to="-758831775#1"/>
    <trip id="357" depart="304.00" from="431981404#0" to="-431827307#0"/>
    <trip id="358" depart="305.00" from="-1190782924" to="895216938"/>
    <trip id="360" depart="306.00" from="-854227942" to="-24683515#0"/>
    <trip id="361" depart="306.00" from="31896236#1" to="432770910#0"/>
    <trip id="362" depart="306.00" from="894591163#1" to="-293255911#1"/>
    <trip id="363" depart="307.00" from="-25044579" to="-25043183#1"/>
    <trip id="364" depart="310.00" from="376543464#1" to="293255909#1"/>
    <trip id="365" depart="310.00" from="372239263#0" to="-24683533#0"/>
    <trip id="366" depart="311.00" from="-1206753904#1" to="31896282"/>
    <trip id="367" depart="311.00" from="-24683543#1" to="-25111440#0"/>
    <trip id="368" depart="313.00" from="-895216932#6" to="-1092457245"/>
    <trip id="369" depart="314.00" from="24791344#0" to="854227946#1"/>
    <trip id="370" depart="315.00" from="895216933#1" to="25046428"/>
    <trip id="371" depart="318.00" from="24405487#2" to="431827304#5"/>
    <trip id="372" depart="319.00" from="-24683538#1" to="431827300#0"/>
    <trip id="373" depart="320.00" from="-1203849765" to="-24791575#1"/>
    <trip id="374" depart="320.00" from="24683548" to="650356319"/>
    <trip id="375" depart="322.00" from="1205662259#5" to="25045239#3"/>
    <trip id="376" depart="322.00" from="429529117#0" to="534900635#1"/>
    <trip id="377" depart="323.00" from="25044935" to="679900450"/>
    <trip id="378" depart="324.00" from="24735618#1" to="538972997#0"/>
    <trip id="379" depart="325.00" from="535566701#1" to="-25046407#1"/>
    <trip id="380" depart="326.00" from="-25046396#0" to="-25111446#0"/>
    <trip id="381" depart="327.00" from="-24699027#0" to="894591161"/>
    <trip id="382" depart="328.00" from="894591184#1" to="24735609"/>
    <trip id="383" depart="329.00" from="-24683612#2" to="24683545"/>
    <trip id="384" depart="329.00" from="186530820#0" to="-24683524#0"/>
    <trip id="385" depart="329.00" from="-107938391#2" to="-24699025#9"/>
    <trip id="386" depart="330.00" from="-25054598#1" to="-431827302#0"/>
    <trip id="387" depart="330.00" from="1080119679" to="-25042906#4"/>
    <trip id="388" depart="331.00" from="25043042" to="-432770520#4"/>
    <trip id="389" depart="332.00" from="-421121954" to="-25042891#0"/>
    <trip id="390" depart="333.00" from="-854227948" to="302965728#4"/>
    <trip id="391" depart="334.00" from="-25046407#2" to="420904972#1"/>
    <trip id="392" depart="338.00" from="-97293743#1" to="-25046412#3"/>
    <trip id="393" depart="339.00" from="376539198" to="423997744"/>
    <trip id="394" depart="339.00" from="-24791335#2" to="25042905#1"/>
    <trip id="395" depart="341.00" from="-24683544" to="432777381#0"/>
    <trip id="397" depart="341.00" from="668298286" to="98246944#19-AddedOffRampEdge"/>
    <trip id="399" depart="343.00" from="24683557#0" to="-25046407#1"/>
    <trip id="401" depart="344.00" from="948224714" to="24683544"/>
    <trip id="402" depart="345.00" from="-25054587#2" to="1094268111"/>
    <trip id="403" depart="345.00" from="-432770520#0" to="-1168287296#0"/>
    <trip id="404" depart="347.00" from="-24791335#0" to="-276636146#2"/>
    <trip id="405" depart="347.00" from="-24683536" to="-895216896#0"/>
    <trip id="406" depart="349.00" from="25054142#0" to="-293256120#2"/>
    <trip id="407" depart="350.00" from="24699045#6" to="1201838049"/>
    <trip id="408" depart="351.00" from="-25042906#5" to="24735611#2"/>
    <trip id="409" depart="351.00" from="25046420" to="25035451#3"/>
    <trip id="410" depart="351.00" from="894591131" to="-25035602"/>
    <trip id="411" depart="352.00" from="-25044938" to="25042914#1"/>
    <trip id="412" depart="352.00" from="-1094282285" to="421121879"/>
    <trip id="413" depart="356.00" from="-25044930#1" to="652044151"/>
    <trip id="414" depart="356.00" from="25044574#0" to="24683560#6"/>
    <trip id="415" depart="357.00" from="894591201" to="25054224#0"/>
    <trip id="416" depart="358.00" from="24791350#0" to="25054591#1"/>
    <trip id="417" depart="358.00" from="894591132" to="999609883#1"/>
    <trip id="418" depart="358.00" from="-107938350#2" to="432777385#0"/>
    <trip id="419" depart="359.00" from="432775732#1" to="-107938377#4"/>
    <trip id="420" depart="361.00" from="431981403#1" to="25042910#1"/>
    <trip id="421" depart="364.00" from="293255909#0" to="-31895154"/>
    <trip id="422" depart="364.00" from="24791350#0" to="-293256888"/>
    <trip id="423" depart="364.00" from="-431827301" to="24405490#0"/>
    <trip id="424" depart="365.00" from="25042896#1" to="-25054587#0"/>
    <trip id="426" depart="368.00" from="-431981404#1" to="24699019#0"/>
    <trip id="427" depart="368.00" from="-24405521#0" to="895216933#1"/>
    <trip id="428" depart="369.00" from="-1168542194#2" to="-421121863#1"/>
    <trip id="429" depart="370.00" from="25042906#0" to="376539778#1"/>
    <trip id="430" depart="373.00" from="679902284#1" to="1205118877"/>
    <trip id="431" depart="374.00" from="-1201838046" to="-1205679704"/>
    <trip id="432" depart="376.00" from="432770526#2" to="-431827304#0"/>
    <trip id="434" depart="380.00" from="895216932#5" to="24791351"/>
    <trip id="435" depart="380.00" from="-660590673" to="1201838045"/>
    <trip id="436" depart="382.00" from="-421121949" to="24405489#1"/>
    <trip id="437" depart="382.00" from="668297057" to="-1380250681"/>
    <trip id="438" depart="383.00" from="-24699019#0" to="372239259#2"/>
    <trip id="439" depart="384.00" from="25111441#0" to="-25054871#1"/>
    <trip id="440" depart="384.00" from="1211499993" to="421121863#1"/>
    <trip id="441" depart="386.00" from="-431775780" to="-199881967#0"/>
    <trip id="442" depart="386.00" from="24683530" to="1094268117"/>
    <trip id="443" depart="388.00" from="-668297056" to="432770530"/>
    <trip id="445" depart="389.00" from="432768292#5" to="432248099#5"/>
    <trip id="446" depart="390.00" from="24405503#1" to="599923153#1"/>
    <trip id="447" depart="390.00" from="-1205693237" to="897097402#0"/>
    <trip id="448" depart="391.00" from="-999609883#0" to="199881967#0"/>
    <trip id="449" depart="393.00" from="431989326" to="1201612996"/>