<?xml version="1.0" ?>
<trips>
  <trip id="roi_trip_0" type="veh_passenger" depart="0.0" from="431981408#0" to="199885791"/>
  <trip id="roi_trip_1" type="veh_passenger" depart="4.34" from="24160011" to="-1205679702#1"/>
  <trip id="roi_trip_2" type="veh_passenger" depart="8.67" from="314066421-AddedOffRampEdge" to="1163917760"/>
  <trip id="roi_trip_3" type="veh_passenger" depart="13.01" from="24160020" to="535922410-AddedOnRampEdge"/>
  <trip id="roi_trip_4" type="veh_passenger" depart="17.35" from="1205679702#1" to="431981407"/>
  <trip id="roi_trip_5" type="veh_passenger" depart="21.69" from="1205679702#1" to="895708421"/>
  <trip id="roi_trip_6" type="veh_passenger" depart="26.02" from="1205679702#1" to="-1205679702#0"/>
  <trip id="roi_trip_7" type="veh_passenger" depart="30.36" from="-1205679702#0" to="25042886"/>
  <trip id="roi_trip_8" type="veh_passenger" depart="34.7" from="98246932" to="199885791"/>
  <trip id="roi_trip_9" type="veh_passenger" depart="39.04" from="24160009" to="1163917760"/>
  <trip id="roi_trip_10" type="veh_passenger" depart="43.37" from="535922410-AddedOnRampEdge" to="24160007#1"/>
  <trip id="roi_trip_11" type="veh_passenger" depart="47.71" from="1168109380" to="-1205679702#1"/>
  <trip id="roi_trip_12" type="veh_passenger" depart="52.05" from="25042886" to="24160007#0"/>
  <trip id="roi_trip_13" type="veh_passenger" depart="56.39" from="431989326" to="535922409"/>
  <trip id="roi_trip_14" type="veh_passenger" depart="60.72" from="535922410-AddedOnRampEdge" to="24160008"/>
  <trip id="roi_trip_15" type="veh_passenger" depart="65.06" from="25042886" to="24160010"/>
  <trip id="roi_trip_16" type="veh_passenger" depart="69.4" from="535922409" to="24160011"/>
  <trip id="roi_trip_17" type="veh_passenger" depart="73.73" from="535922409" to="24160007#0"/>
  <trip id="roi_trip_18" type="veh_passenger" depart="78.07" from="1163917760" to="535922410"/>
  <trip id="roi_trip_19" type="veh_passenger" depart="82.41" from="431981407" to="24160009"/>
  <trip id="roi_trip_20" type="veh_passenger" depart="86.75" from="24160007#0" to="314066421-AddedOffRampEdge"/>
  <trip id="roi_trip_21" type="veh_passenger" depart="91.08" from="1205679702#1" to="428326182"/>
  <trip id="roi_trip_22" type="veh_passenger" depart="95.42" from="24160007#0" to="-1205679702#0"/>
  <trip id="roi_trip_23" type="veh_passenger" depart="99.76" from="1168283956" to="428326182"/>
  <trip id="roi_trip_24" type="veh_passenger" depart="104.1" from="24160008" to="1168109380"/>
  <trip id="roi_trip_25" type="veh_passenger" depart="108.43" from="535922410-AddedOnRampEdge" to="1205679702#1"/>
  <trip id="roi_trip_26" type="veh_passenger" depart="112.77" from="431981408#0" to="24160009"/>
  <trip id="roi_trip_27" type="veh_passenger" depart="117.11" from="24160008" to="431981408#0"/>
  <trip id="roi_trip_28" type="veh_passenger" depart="121.45" from="199885791" to="895708421"/>
  <trip id="roi_trip_29" type="veh_passenger" depart="125.78" from="24160007#0" to="431981408#0"/>
  <trip id="roi_trip_30" type="veh_passenger" depart="130.12" from="98246932" to="431989326"/>
  <trip id="roi_trip_31" type="veh_passenger" depart="134.46" from="24160007#1" to="24160012#1"/>
  <trip id="roi_trip_32" type="veh_passenger" depart="138.8" from="431981407" to="1168273992-AddedOffRampEdge"/>
  <trip id="roi_trip_33" type="veh_passenger" depart="143.13" from="24160020" to="1205679702#1"/>
  <trip id="roi_trip_34" type="veh_passenger" depart="147.47" from="431989326" to="25042886"/>
  <trip id="roi_trip_35" type="veh_passenger" depart="151.81" from="535922410-AddedOnRampEdge" to="24160012#1"/>
  <trip id="roi_trip_36" type="veh_passenger" depart="156.14" from="24160010" to="1168283956"/>
  <trip id="roi_trip_37" type="veh_passenger" depart="160.48" from="1205679702#1" to="431981407"/>
  <trip id="roi_trip_38" type="veh_passenger" depart="164.82" from="-1205679702#0" to="199885792"/>
  <trip id="roi_trip_39" type="veh_passenger" depart="169.16" from="428326182" to="24160007#1"/>
  <trip id="roi_trip_40" type="veh_passenger" depart="173.49" from="24160020" to="431981407"/>
  <trip id="roi_trip_41" type="veh_passenger" depart="177.83" from="24160009" to="24160011"/>
  <trip id="roi_trip_42" type="veh_passenger" depart="182.17" from="-1205679702#1" to="-1205679702#0"/>
  <trip id="roi_trip_43" type="veh_passenger" depart="186.51" from="24160007#2" to="24160012#1"/>
  <trip id="roi_trip_44" type="veh_passenger" depart="190.84" from="24160020" to="-1205679702#1"/>
  <trip id="roi_trip_45" type="veh_passenger" depart="195.18" from="-1205679702#1" to="1168109380"/>
  <trip id="roi_trip_46" type="veh_passenger" depart="199.52" from="24160007#2" to="-1205679702#0"/>
  <trip id="roi_trip_47" type="veh_passenger" depart="203.86" from="1168273992-AddedOffRampEdge" to="431989326"/>
  <trip id="roi_trip_48" type="veh_passenger" depart="208.19" from="535922409" to="428326182"/>
  <trip id="roi_trip_49" type="veh_passenger" depart="212.53" from="1168283956" to="24160020"/>
  <trip id="roi_trip_50" type="veh_passenger" depart="216.87" from="1168273992-AddedOffRampEdge" to="428326182"/>
  <trip id="roi_trip_51" type="veh_passenger" depart="221.2" from="314066421-AddedOffRampEdge" to="1205679702#0"/>
  <trip id="roi_trip_52" type="veh_passenger" depart="225.54" from="199885792" to="431989326"/>
  <trip id="roi_trip_53" type="veh_passenger" depart="229.88" from="428326182" to="431981407"/>
  <trip id="roi_trip_54" type="veh_passenger" depart="234.22" from="24160020" to="1163917760"/>
  <trip id="roi_trip_55" type="veh_passenger" depart="238.55" from="535922410-AddedOnRampEdge" to="-1205679702#0"/>
  <trip id="roi_trip_56" type="veh_passenger" depart="242.89" from="24160011" to="24160007#0"/>
  <trip id="roi_trip_57" type="veh_passenger" depart="247.23" from="98246932" to="199885791"/>
  <trip id="roi_trip_58" type="veh_passenger" depart="251.57" from="1163917760" to="314066421-AddedOffRampEdge"/>
  <trip id="roi_trip_59" type="veh_passenger" depart="255.9" from="895708421" to="428326182"/>
  <trip id="roi_trip_60" type="veh_passenger" depart="260.24" from="431981408#0" to="24160010"/>
  <trip id="roi_trip_61" type="veh_passenger" depart="264.58" from="199885792" to="24160020"/>
  <trip id="roi_trip_62" type="veh_passenger" depart="268.92" from="431989326" to="1163917760"/>
  <trip id="roi_trip_63" type="veh_passenger" depart="273.25" from="535922410-AddedOnRampEdge" to="1205679702#0"/>
  <trip id="roi_trip_64" type="veh_passenger" depart="277.59" from="535922409" to="895708421"/>
  <trip id="roi_trip_65" type="veh_passenger" depart="281.93" from="431989326" to="24160007#1"/>
  <trip id="roi_trip_66" type="veh_passenger" depart="286.27" from="24160007#1" to="895708421"/>
  <trip id="roi_trip_67" type="veh_passenger" depart="290.6" from="431981407" to="1168283956"/>
  <trip id="roi_trip_68" type="veh_passenger" depart="294.94" from="199885792" to="428326182"/>
  <trip id="roi_trip_69" type="veh_passenger" depart="299.28" from="1163917760" to="895708421"/>
  <trip id="roi_trip_70" type="veh_passenger" depart="303.61" from="24160008" to="535922409"/>
  <trip id="roi_trip_71" type="veh_passenger" depart="307.95" from="24160010" to="199885792"/>
  <trip id="roi_trip_72" type="veh_passenger" depart="312.29" from="1163917760" to="199885792"/>
  <trip id="roi_trip_73" type="veh_passenger" depart="316.63" from="535922410-AddedOnRampEdge" to="1168283956"/>
  <trip id="roi_trip_74" type="veh_passenger" depart="320.96" from="24160012#1" to="431981407"/>
  <trip id="roi_trip_75" type="veh_passenger" depart="325.3" from="24160008" to="-1205679702#1"/>
  <trip id="roi_trip_76" type="veh_passenger" depart="329.64" from="1168283956" to="535922410"/>
  <trip id="roi_trip_77" type="veh_passenger" depart="333.98" from="431989326" to="431981408#0"/>
  <trip id="roi_trip_78" type="veh_passenger" depart="338.31" from="428326182" to="1205679702#0"/>
  <trip id="roi_trip_79" type="veh_passenger" depart="342.65" from="24160008" to="1205679702#1"/>
  <trip id="roi_trip_80" type="veh_passenger" depart="346.99" from="895708421" to="24160009"/>
  <trip id="roi_trip_81" type="veh_passenger" depart="351.33" from="431981407" to="-1205679702#1"/>
  <trip id="roi_trip_82" type="veh_passenger" depart="355.66" from="1205679702#0" to="24160007#0"/>
  <trip id="roi_trip_83" type="veh_passenger" depart="360.0" from="431981408#0" to="1205679702#0"/>
  <trip id="roi_trip_84" type="veh_passenger" depart="364.34" from="25042886" to="24160007#0"/>
  <trip id="roi_trip_85" type="veh_passenger" depart="368.67" from="431989326" to="314066421-AddedOffRampEdge"/>
  <trip id="roi_trip_86" type="veh_passenger" depart="373.01" from="535922409" to="199885791"/>
  <trip id="roi_trip_87" type="veh_passenger" depart="377.35" from="24160010" to="24160012#1"/>
  <trip id="roi_trip_88" type="veh_passenger" depart="381.69" from="535922410-AddedOnRampEdge" to="-1205679702#0"/>
  <trip id="roi_trip_89" type="veh_passenger" depart="386.02" from="423997744" to="1168273992-AddedOffRampEdge"/>
  <trip id="roi_trip_90" type="veh_passenger" depart="390.36" from="24160012#1" to="1205679702#0"/>
  <trip id="roi_trip_91" type="veh_passenger" depart="394.7" from="24160007#1" to="431981408#0"/>
  <trip id="roi_trip_92" type="veh_passenger" depart="399.04" from="199885791" to="24160007#2"/>
  <trip id="roi_trip_93" type="veh_passenger" depart="403.37" from="1163917760" to="24160012#1"/>
  <trip id="roi_trip_94" type="veh_passenger" depart="407.71" from="24160009" to="1163917760"/>
  <trip id="roi_trip_95" type="veh_passenger" depart="412.05" from="199885792" to="428326182"/>
  <trip id="roi_trip_96" type="veh_passenger" depart="416.39" from="423997744" to="431981407"/>
  <trip id="roi_trip_97" type="veh_passenger" depart="420.72" from="-1205679702#1" to="98246932"/>
  <trip id="roi_trip_98" type="veh_passenger" depart="425.06" from="-1205679702#1" to="24160012#1"/>
  <trip id="roi_trip_99" type="veh_passenger" depart="429.4" from="535922410-AddedOnRampEdge" to="428326182"/>
  <trip id="roi_trip_100" type="veh_passenger" depart="433.73" from="25042886" to="24160011"/>
  <trip id="roi_trip_101" type="veh_passenger" depart="438.07" from="24160007#1" to="24160012#1"/>
  <trip id="roi_trip_102" type="veh_passenger" depart="442.41" from="428326182" to="24160011"/>
  <trip id="roi_trip_103" type="veh_passenger" depart="446.75" from="24160020" to="1205679702#0"/>
  <trip id="roi_trip_104" type="veh_passenger" depart="451.08" from="1205679702#1" to="314066421-AddedOffRampEdge"/>
  <trip id="roi_trip_105" type="veh_passenger" depart="455.42" from="24160009" to="24160007#0"/>
  <trip id="roi_trip_106" type="veh_passenger" depart="459.76" from="25042886" to="428326182"/>
  <trip id="roi_trip_107" type="veh_passenger" depart="464.1" from="423997744" to="431989326"/>
  <trip id="roi_trip_108" type="veh_passenger" depart="468.43" from="98246932" to="1205679702#0"/>
  <trip id="roi_trip_109" type="veh_passenger" depart="472.77" from="1205679702#0" to="24160007#0"/>
  <trip id="roi_trip_110" type="veh_passenger" depart="477.11" from="535922410" to="199885792"/>
  <trip id="roi_trip_111" type="veh_passenger" depart="481.45" from="431981408#0" to="1205679702#1"/>
  <trip id="roi_trip_112" type="veh_passenger" depart="485.78" from="24160007#1" to="24160012#1"/>
  <trip id="roi_trip_113" type="veh_passenger" depart="490.12" from="535922410" to="199885792"/>
  <trip id="roi_trip_114" type="veh_passenger" depart="494.46" from="314066421-AddedOffRampEdge" to="24160007#0"/>
  <trip id="roi_trip_115" type="veh_passenger" depart="498.8" from="24160007#0" to="24160010"/>
  <trip id="roi_trip_116" type="veh_passenger" depart="503.13" from="98246932" to="431981407"/>
  <trip id="roi_trip_117" type="veh_passenger" depart="507.47" from="431981407" to="1205679702#1"/>
  <trip id="roi_trip_118" type="veh_passenger" depart="511.81" from="535922409" to="1168109380"/>
  <trip id="roi_trip_119" type="veh_passenger" depart="516.14" from="1163917760" to="24160008"/>
  <trip id="roi_trip_120" type="veh_passenger" depart="520.48" from="24160008" to="428326182"/>
  <trip id="roi_trip_121" type="veh_passenger" depart="524.82" from="1168109380" to="431981408#0"/>
  <trip id="roi_trip_122" type="veh_passenger" depart="529.16" from="428326182" to="199885791"/>
  <trip id="roi_trip_123" type="veh_passenger" depart="533.49" from="428326182" to="-1205679702#0"/>
  <trip id="roi_trip_124" type="veh_passenger" depart="537.83" from="199885791" to="-1205679702#0"/>
  <trip id="roi_trip_125" type="veh_passenger" depart="542.17" from="24160009" to="431981407"/>
  <trip id="roi_trip_126" type="veh_passenger" depart="546.51" from="535922410-AddedOnRampEdge" to="431981408#0"/>
  <trip id="roi_trip_127" type="veh_passenger" depart="550.84" from="24160007#0" to="428326182"/>
  <trip id="roi_trip_128" type="veh_passenger" depart="555.18" from="24160008" to="-1205679702#1"/>
  <trip id="roi_trip_129" type="veh_passenger" depart="559.52" from="535922410-AddedOnRampEdge" to="428326182"/>
  <trip id="roi_trip_130" type="veh_passenger" depart="563.86" from="24160007#2" to="535922410"/>
  <trip id="roi_trip_131" type="veh_passenger" depart="568.19" from="199885791" to="98246932"/>
  <trip id="roi_trip_132" type="veh_passenger" depart="572.53" from="24160012#1" to="431989326"/>
  <trip id="roi_trip_133" type="veh_passenger" depart="576.87" from="895708421" to="24160011"/>
  <trip id="roi_trip_134" type="veh_passenger" depart="581.2" from="24160009" to="-1205679702#1"/>
  <trip id="roi_trip_135" type="veh_passenger" depart="585.54" from="895708421" to="25042886"/>
  <trip id="roi_trip_136" type="veh_passenger" depart="589.88" from="314066421-AddedOffRampEdge" to="1205679702#1"/>
  <trip id="roi_trip_137" type="veh_passenger" depart="594.22" from="24160010" to="535922410-AddedOnRampEdge"/>
  <trip id="roi_trip_138" type="veh_passenger" depart="598.55" from="1168273992-AddedOffRampEdge" to="535922410-AddedOnRampEdge"/>
  <trip id="roi_trip_139" type="veh_passenger" depart="602.89" from="199885792" to="24160007#1"/>
  <trip id="roi_trip_140" type="veh_passenger" depart="607.23" from="895708421" to="24160007#0"/>
  <trip id="roi_trip_141" type="veh_passenger" depart="611.57" from="24160007#2" to="199885791"/>
  <trip id="roi_trip_142" type="veh_passenger" depart="615.9" from="24160007#2" to="1168273992-AddedOffRampEdge"/>
  <trip id="roi_trip_143" type="veh_passenger" depart="620.24" from="535922409" to="199885792"/>
  <trip id="roi_trip_144" type="veh_passenger" depart="624.58" from="24160008" to="1168109380"/>
  <trip id="roi_trip_145" type="veh_passenger" depart="628.92" from="24160007#2" to="24160011"/>
  <trip id="roi_trip_146" type="veh_passenger" depart="633.25" from="1205679702#1" to="535922410"/>
  <trip id="roi_trip_147" type="veh_passenger" depart="637.59" from="1163917760" to="535922409"/>
  <trip id="roi_trip_148" type="veh_passenger" depart="641.93" from="423997744" to="24160008"/>
  <trip id="roi_trip_149" type="veh_passenger" depart="646.27" from="24160007#0" to="24160020"/>
  <trip id="roi_trip_150" type="veh_passenger" depart="650.6" from="1168283956" to="1205679702#0"/>
  <trip id="roi_trip_151" type="veh_passenger" depart="654.94" from="535922410-AddedOnRampEdge" to="1168109380"/>
  <trip id="roi_trip_152" type="veh_passenger" depart="659.28" from="1205679702#1" to="535922410-AddedOnRampEdge"/>
  <trip id="roi_trip_153" type="veh_passenger" depart="663.61" from="1163917760" to="423997744"/>
  <trip id="roi_trip_154" type="veh_passenger" depart="667.95" from="428326182" to="431989326"/>
  <trip id="roi_trip_155" type="veh_passenger" depart="672.29" from="-1205679702#1" to="1163917760"/>
  <trip id="roi_trip_156" type="veh_passenger" depart="676.63" from="24160009" to="1205679702#1"/>
  <trip id="roi_trip_157" type="veh_passenger" depart="680.96" from="423997744" to="24160007#0"/>
  <trip id="roi_trip_158" type="veh_passenger" depart="685.3" from="-1205679702#0" to="24160007#1"/>
  <trip id="roi_trip_159" type="veh_passenger" depart="689.64" from="535922410" to="24160011"/>
  <trip id="roi_trip_160" type="veh_passenger" depart="693.98" from="24160007#0" to="24160010"/>
  <trip id="roi_trip_161" type="veh_passenger" depart="698.31" from="199885791" to="24160008"/>
  <trip id="roi_trip_162" type="veh_passenger" depart="702.65" from="24160008" to="428326182"/>
  <trip id="roi_trip_163" type="veh_passenger" depart="706.99" from="24160009" to="24160007#1"/>
  <trip id="roi_trip_164" type="veh_passenger" depart="711.33" from="24160007#0" to="1168273992-AddedOffRampEdge"/>
  <trip id="roi_trip_165" type="veh_passenger" depart="715.66" from="431989326" to="428326182"/>
  <trip id="roi_trip_166" type="veh_passenger" depart="720.0" from="431981407" to="24160010"/>
  <trip id="roi_trip_167" type="veh_passenger" depart="724.34" from="1168109380" to="24160007#0"/>
  <trip id="roi_trip_168" type="veh_passenger" depart="728.67" from="24160010" to="314066421-AddedOffRampEdge"/>
  <trip id="roi_trip_169" type="veh_passenger" depart="733.01" from="1205679702#0" to="1168273992-AddedOffRampEdge"/>
  <trip id="roi_trip_170" type="veh_passenger" depart="737.35" from="1163917760" to="-1205679702#1"/>
  <trip id="roi_trip_171" type="veh_passenger" depart="741.69" from="431981408#0" to="1168283956"/>
  <trip id="roi_trip_172" type="veh_passenger" depart="746.02" from="24160009" to="98246932"/>
  <trip id="roi_trip_173" type="veh_passenger" depart="750.36" from="24160007#0" to="1163917760"/>
  <trip id="roi_trip_174" type="veh_passenger" depart="754.7" from="1163917760" to="98246932"/>
  <trip id="roi_trip_175" type="veh_passenger" depart="759.04" from="428326182" to="431989326"/>
  <trip id="roi_trip_176" type="veh_passenger" depart="763.37" from="535922409" to="25042886"/>
  <trip id="roi_trip_177" type="veh_passenger" depart="767.71" from="24160007#0" to="535922410"/>
  <trip id="roi_trip_178" type="veh_passenger" depart="772.05" from="1205679702#0" to="1168283956"/>
  <trip id="roi_trip_179" type="veh_passenger" depart="776.39" from="1205679702#1" to="25042886"/>
  <trip id="roi_trip_180" type="veh_passenger" depart="780.72" from="1168283956" to="1168109380"/>
  <trip id="roi_trip_181" type="veh_passenger" depart="785.06" from="535922410" to="1168273992-AddedOffRampEdge"/>
  <trip id="roi_trip_182" type="veh_passenger" depart="789.4" from="423997744" to="24160020"/>
  <trip id="roi_trip_183" type="veh_passenger" depart="793.73" from="895708421" to="24160020"/>
  <trip id="roi_trip_184" type="veh_passenger" depart="798.07" from="199885791" to="428326182"/>
  <trip id="roi_trip_185" type="veh_passenger" depart="802.41" from="535922409" to="-1205679702#1"/>
  <trip id="roi_trip_186" type="veh_passenger" depart="806.75" from="895708421" to="24160008"/>
  <trip id="roi_trip_187" type="veh_passenger" depart="811.08" from="-1205679702#0" to="24160007#1"/>
  <trip id="roi_trip_188" type="veh_passenger" depart="815.42" from="24160009" to="535922409"/>
  <trip id="roi_trip_189" type="veh_passenger" depart="819.76" from="98246932" to="895708421"/>
  <trip id="roi_trip_190" type="veh_passenger" depart="824.1" from="24160010" to="24160007#1"/>
  <trip id="roi_trip_191" type="veh_passenger" depart="828.43" from="24160009" to="24160020"/>
  <trip id="roi_trip_192" type="veh_passenger" depart="832.77" from="1163917760" to="1168283956"/>
  <trip id="roi_trip_193" type="veh_passenger" depart="837.11" from="24160007#2" to="24160010"/>
  <trip id="roi_trip_194" type="veh_passenger" depart="841.45" from="24160012#1" to="199885791"/>
  <trip id="roi_trip_195" type="veh_passenger" depart="845.78" from="535922410" to="24160020"/>
  <trip id="roi_trip_196" type="veh_passenger" depart="850.12" from="423997744" to="1205679702#1"/>
  <trip id="roi_trip_197" type="veh_passenger" depart="854.46" from="24160011" to="895708421"/>
  <trip id="roi_trip_198" type="veh_passenger" depart="858.8" from="199885791" to="24160007#2"/>
  <trip id="roi_trip_199" type="veh_passenger" depart="863.13" from="431989326" to="431981407"/>
  <trip id="roi_trip_200" type="veh_passenger" depart="867.47" from="1163917760" to="314066421-AddedOffRampEdge"/>
  <trip id="roi_trip_201" type="veh_passenger" depart="871.81" from="423997744" to="535922410"/>
  <trip id="roi_trip_202" type="veh_passenger" depart="876.14" from="24160012#1" to="24160008"/>
  <trip id="roi_trip_203" type="veh_passenger" depart="880.48" from="24160011" to="423997744"/>
  <trip id="roi_trip_204" type="veh_passenger" depart="884.82" from="1168273992-AddedOffRampEdge" to="895708421"/>
  <trip id="roi_trip_205" type="veh_passenger" depart="889.16" from="98246932" to="199885792"/>
  <trip id="roi_trip_206" type="veh_passenger" depart="893.49" from="-1205679702#0" to="535922410-AddedOnRampEdge"/>
  <trip id="roi_trip_207" type="veh_passenger" depart="897.83" from="431981408#0" to="423997744"/>
  <trip id="roi_trip_208" type="veh_passenger" depart="902.17" from="1168273992-AddedOffRampEdge" to="535922410"/>
  <trip id="roi_trip_209" type="veh_passenger" depart="906.51" from="199885792" to="1205679702#1"/>
  <trip id="roi_trip_210" type="veh_passenger" depart="910.84" from="1163917760" to="535922410-AddedOnRampEdge"/>
  <trip id="roi_trip_211" type="veh_passenger" depart="915.18" from="25042886" to="199885792"/>
  <trip id="roi_trip_212" type="veh_passenger" depart="919.52" from="1168283956" to="24160012#1"/>
  <trip id="roi_trip_213" type="veh_passenger" depart="923.86" from="98246932" to="1168109380"/>
  <trip id="roi_trip_214" type="veh_passenger" depart="928.19" from="535922410-AddedOnRampEdge" to="314066421-AddedOffRampEdge"/>
  <trip id="roi_trip_215" type="veh_passenger" depart="932.53" from="24160007#1" to="24160010"/>
  <trip id="roi_trip_216" type="veh_passenger" depart="936.87" from="1168283956" to="24160007#2"/>
  <trip id="roi_trip_217" type="veh_passenger" depart="941.2" from="199885791" to="24160010"/>
  <trip id="roi_trip_218" type="veh_passenger" depart="945.54" from="24160010" to="1168283956"/>
  <trip id="roi_trip_219" type="veh_passenger" depart="949.88" from="24160020" to="431981408#0"/>
  <trip id="roi_trip_220" type="veh_passenger" depart="954.22" from="535922410" to="1168109380"/>
  <trip id="roi_trip_221" type="veh_passenger" depart="958.55" from="423997744" to="431989326"/>
  <trip id="roi_trip_222" type="veh_passenger" depart="962.89" from="431989326" to="431981408#0"/>
  <trip id="roi_trip_223" type="veh_passenger" depart="967.23" from="1168109380" to="24160010"/>
  <trip id="roi_trip_224" type="veh_passenger" depart="971.57" from="431981407" to="895708421"/>
  <trip id="roi_trip_225" type="veh_passenger" depart="975.9" from="1205679702#0" to="24160012#1"/>
  <trip id="roi_trip_226" type="veh_passenger" depart="980.24" from="431981408#0" to="25042886"/>
  <trip id="roi_trip_227" type="veh_passenger" depart="984.58" from="431981407" to="25042886"/>
  <trip id="roi_trip_228" type="veh_passenger" depart="988.92" from="428326182" to="1168283956"/>
  <trip id="roi_trip_229" type="veh_passenger" depart="993.25" from="535922410" to="535922409"/>
  <trip id="roi_trip_230" type="veh_passenger" depart="997.59" from="431981408#0" to="24160008"/>
  <trip id="roi_trip_231" type="veh_passenger" depart="1001.93" from="431989326" to="1168109380"/>
  <trip id="roi_trip_232" type="veh_passenger" depart="1006.27" from="199885791" to="431981407"/>
  <trip id="roi_trip_233" type="veh_passenger" depart="1010.6" from="98246932" to="25042886"/>
  <trip id="roi_trip_234" type="veh_passenger" depart="1014.94" from="98246932" to="895708421"/>
  <trip id="roi_trip_235" type="veh_passenger" depart="1019.28" from="1205679702#1" to="1168283956"/>
  <trip id="roi_trip_236" type="veh_passenger" depart="1023.61" from="-1205679702#0" to="895708421"/>
  <trip id="roi_trip_237" type="veh_passenger" depart="1027.95" from="1205679702#1" to="535922410-AddedOnRampEdge"/>
  <trip id="roi_trip_238" type="veh_passenger" depart="1032.29" from="1168109380" to="1168283956"/>
  <trip id="roi_trip_239" type="veh_passenger" depart="1036.63" from="423997744" to="199885792"/>
  <trip id="roi_trip_240" type="veh_passenger" depart="1040.96" from="24160009" to="98246932"/>
  <trip id="roi_trip_241" type="veh_passenger" depart="1045.3" from="24160012#1" to="-1205679702#1"/>
  <trip id="roi_trip_242" type="veh_passenger" depart="1049.64" from="24160007#0" to="24160011"/>
  <trip id="roi_trip_243" type="veh_passenger" depart="1053.98" from="423997744" to="535922410-AddedOnRampEdge"/>
  <trip id="roi_trip_244" type="veh_passenger" depart="1058.31" from="1205679702#0" to="24160007#2"/>
  <trip id="roi_trip_245" type="veh_passenger" depart="1062.65" from="431989326" to="535922409"/>
  <trip id="roi_trip_246" type="veh_passenger" depart="1066.99" from="24160008" to="24160010"/>
  <trip id="roi_trip_247" type="veh_passenger" depart="1071.33" from="1205679702#1" to="535922410"/>
  <trip id="roi_trip_248" type="veh_passenger" depart="1075.66" from="1168283956" to="431989326"/>
  <trip id="roi_trip_249" type="veh_passenger" depart="1080.0" from="199885791" to="1168109380"/>
  <trip id="roi_trip_250" type="veh_passenger" depart="1084.34" from="25042886" to="1205679702#1"/>
  <trip id="roi_trip_251" type="veh_passenger" depart="1088.67" from="1163917760" to="98246932"/>
  <trip id="roi_trip_252" type="veh_passenger" depart="1093.01" from="199885792" to="24160020"/>
  <trip id="roi_trip_253" type="veh_passenger" depart="1097.35" from="535922410" to="431981408#0"/>
  <trip id="roi_trip_254" type="veh_passenger" depart="1101.69" from="423997744" to="24160011"/>
  <trip id="roi_trip_255" type="veh_passenger" depart="1106.02" from="1205679702#0" to="1205679702#1"/>
  <trip id="roi_trip_256" type="veh_passenger" depart="1110.36" from="535922409" to="-1205679702#0"/>
  <trip id="roi_trip_257" type="veh_passenger" depart="1114.7" from="431981407" to="1168273992-AddedOffRampEdge"/>
  <trip id="roi_trip_258" type="veh_passenger" depart="1119.04" from="431981408#0" to="24160008"/>
  <trip id="roi_trip_259" type="veh_passenger" depart="1123.37" from="24160011" to="431981407"/>
  <trip id="roi_trip_260" type="veh_passenger" depart="1127.71" from="423997744" to="431981408#0"/>
  <trip id="roi_trip_261" type="veh_passenger" depart="1132.05" from="423997744" to="24160010"/>
  <trip id="roi_trip_262" type="veh_passenger" depart="1136.39" from="24160009" to="895708421"/>
  <trip id="roi_trip_263" type="veh_passenger" depart="1140.72" from="24160007#1" to="24160007#2"/>
  <trip id="roi_trip_264" type="veh_passenger" depart="1145.06" from="1163917760" to="423997744"/>
  <trip id="roi_trip_265" type="veh_passenger" depart="1149.4" from="24160009" to="24160007#2"/>
  <trip id="roi_trip_266" type="veh_passenger" depart="1153.73" from="199885791" to="1168283956"/>
  <trip id="roi_trip_267" type="veh_passenger" depart="1158.07" from="24160007#0" to="428326182"/>
  <trip id="roi_trip_268" type="veh_passenger" depart="1162.41" from="428326182" to="98246932"/>
  <trip id="roi_trip_269" type="veh_passenger" depart="1166.75" from="25042886" to="24160007#0"/>
  <trip id="roi_trip_270" type="veh_passenger" depart="1171.08" from="24160007#2" to="431989326"/>
  <trip id="roi_trip_271" type="veh_passenger" depart="1175.42" from="199885791" to="24160010"/>
  <trip id="roi_trip_272" type="veh_passenger" depart="1179.76" from="431989326" to="431981408#0"/>
  <trip id="roi_trip_273" type="veh_passenger" depart="1184.1" from="314066421-AddedOffRampEdge" to="24160007#1"/>
  <trip id="roi_trip_274" type="veh_passenger" depart="1188.43" from="24160010" to="24160009"/>
  <trip id="roi_trip_275" type="veh_passenger" depart="1192.77" from="24160009" to="98246932"/>
  <trip id="roi_trip_276" type="veh_passenger" depart="1197.11" from="199885791" to="24160007#0"/>
  <trip id="roi_trip_277" type="veh_passenger" depart="1201.45" from="431981407" to="1205679702#1"/>
  <trip id="roi_trip_278" type="veh_passenger" depart="1205.78" from="1168283956" to="24160012#1"/>
  <trip id="roi_trip_279" type="veh_passenger" depart="1210.12" from="1163917760" to="895708421"/>
  <trip id="roi_trip_280" type="veh_passenger" depart="1214.46" from="24160007#1" to="423997744"/>
  <trip id="roi_trip_281" type="veh_passenger" depart="1218.8" from="1205679702#0" to="24160012#1"/>
  <trip id="roi_trip_282" type="veh_passenger" depart="1223.13" from="535922410" to="535922410-AddedOnRampEdge"/>
  <trip id="roi_trip_283" type="veh_passenger" depart="1227.47" from="199885791" to="1168273992-AddedOffRampEdge"/>
  <trip id="roi_trip_284" type="veh_passenger" depart="1231.81" from="199885792" to="1205679702#0"/>
  <trip id="roi_trip_285" type="veh_passenger" depart="1236.14" from="24160012#1" to="1168283956"/>
  <trip id="roi_trip_286" type="veh_passenger" depart="1240.48" from="1163917760" to="423997744"/>
  <trip id="roi_trip_287" type="veh_passenger" depart="1244.82" from="1168283956" to="535922410"/>
  <trip id="roi_trip_288" type="veh_passenger" depart="1249.16" from="431981407" to="1168283956"/>
  <trip id="roi_trip_289" type="veh_passenger" depart="1253.49" from="1168109380" to="-1205679702#0"/>
  <trip id="roi_trip_290" type="veh_passenger" depart="1257.83" from="314066421-AddedOffRampEdge" to="1163917760"/>
  <trip id="roi_trip_291" type="veh_passenger" depart="1262.17" from="24160007#1" to="-1205679702#0"/>
  <trip id="roi_trip_292" type="veh_passenger" depart="1266.51" from="1168109380" to="314066421-AddedOffRampEdge"/>
  <trip id="roi_trip_293" type="veh_passenger" depart="1270.84" from="1163917760" to="24160007#2"/>
  <trip id="roi_trip_294" type="veh_passenger" depart="1275.18" from="25042886" to="535922410-AddedOnRampEdge"/>
  <trip id="roi_trip_295" type="veh_passenger" depart="1279.52" from="314066421-AddedOffRampEdge" to="1168283956"/>
  <trip id="roi_trip_296" type="veh_passenger" depart="1283.86" from="1205679702#0" to="1205679702#1"/>