<?xml version='1.0' encoding='UTF-8'?>
<trips><trip id="roi_trip_0" type="veh_passenger" depart="0.0" from="535922410" to="431989326" /><trip id="roi_trip_1" type="veh_passenger" depart="87.8" from="24160010" to="24160008" /><trip id="roi_trip_2" type="veh_passenger" depart="175.61" from="431981407" to="24160010" /><trip id="roi_trip_3" type="veh_passenger" depart="263.41" from="423997744" to="1168109380" /><trip id="roi_trip_4" type="veh_passenger" depart="351.22" from="-1205679702#1" to="24160007#1" /><trip id="roi_trip_5" type="veh_passenger" depart="439.02" from="1205679702#1" to="24160011" /><trip id="roi_trip_6" type="veh_passenger" depart="526.83" from="24160009" to="1168273992-AddedOffRampEdge" /><trip id="roi_trip_7" type="veh_passenger" depart="614.63" from="431981407" to="24160007#2" /><trip id="roi_trip_8" type="veh_passenger" depart="702.44" from="24160011" to="314066421-AddedOffRampEdge" /><trip id="roi_trip_9" type="veh_passenger" depart="790.24" from="1168273992-AddedOffRampEdge" to="1168283956" /><trip id="roi_trip_10" type="veh_passenger" depart="878.05" from="24160020" to="199885791" /><trip id="roi_trip_11" type="veh_passenger" depart="965.85" from="-1205679702#1" to="199885791" /><trip id="roi_trip_12" type="veh_passenger" depart="1053.66" from="199885791" to="24160012#1" /><trip id="roi_trip_13" type="veh_passenger" depart="1141.46" from="314066421-AddedOffRampEdge" to="895708421" /><trip id="roi_trip_14" type="veh_passenger" depart="1229.27" from="24160010" to="199885791" /><trip id="roi_trip_15" type="veh_passenger" depart="1317.07" from="24160007#1" to="314066421-AddedOffRampEdge" /><trip id="roi_trip_16" type="veh_passenger" depart="1404.88" from="431981408#0" to="-1205679702#0" /><trip id="roi_trip_17" type="veh_passenger" depart="1492.68" from="24160007#0" to="535922409" /><trip id="roi_trip_18" type="veh_passenger" depart="1580.49" from="24160010" to="431981407" /><trip id="roi_trip_19" type="veh_passenger" depart="1668.29" from="24160012#1" to="431981407" /><trip id="roi_trip_20" type="veh_passenger" depart="1756.1" from="1163917760" to="-1205679702#1" /><trip id="roi_trip_21" type="veh_passenger" depart="1843.9" from="431981408#0" to="24160011" /><trip id="roi_trip_22" type="veh_passenger" depart="1931.71" from="24160020" to="98246932" /><trip id="roi_trip_23" type="veh_passenger" depart="2019.51" from="535922410-AddedOnRampEdge" to="24160009" /><trip id="roi_trip_24" type="veh_passenger" depart="2107.32" from="1205679702#0" to="199885792" /><trip id="roi_trip_25" type="veh_passenger" depart="2195.12" from="431989326" to="24160010" /><trip id="roi_trip_26" type="veh_passenger" depart="2282.93" from="428326182" to="895708421" /><trip id="roi_trip_27" type="veh_passenger" depart="2370.73" from="-1205679702#0" to="895708421" /><trip id="roi_trip_28" type="veh_passenger" depart="2458.54" from="895708421" to="1163917760" /><trip id="roi_trip_29" type="veh_passenger" depart="2546.34" from="24160020" to="1163917760" /><trip id="roi_trip_30" type="veh_passenger" depart="2634.15" from="1168283956" to="1168273992-AddedOffRampEdge" /><trip id="roi_trip_31" type="veh_passenger" depart="2721.95" from="1168109380" to="535922410-AddedOnRampEdge" /><trip id="roi_trip_32" type="veh_passenger" depart="2809.76" from="199885791" to="24160012#1" /><trip id="roi_trip_33" type="veh_passenger" depart="2897.56" from="428326182" to="24160010" /><trip id="roi_trip_34" type="veh_passenger" depart="2985.37" from="1163917760" to="895708421" /><trip id="roi_trip_35" type="veh_passenger" depart="3073.17" from="431981407" to="1205679702#0" /><trip id="roi_trip_36" type="veh_passenger" depart="3160.98" from="431981407" to="428326182" /><trip id="roi_trip_37" type="veh_passenger" depart="3248.78" from="199885792" to="314066421-AddedOffRampEdge" /><trip id="roi_trip_38" type="veh_passenger" depart="3336.59" from="98246932" to="314066421-AddedOffRampEdge" /><trip id="roi_trip_39" type="veh_passenger" depart="3424.39" from="431981408#0" to="199885791" /><trip id="roi_trip_40" type="veh_passenger" depart="3512.2" from="1205679702#0" to="423997744" /></trips>