<?xml version='1.0' encoding='UTF-8'?>
<trips><trip id="roi_trip_0" type="veh_passenger" depart="0.0" from="199885792" to="431981407" /><trip id="roi_trip_1" type="veh_passenger" depart="17.39" from="24160011" to="24160008" /><trip id="roi_trip_2" type="veh_passenger" depart="34.78" from="-1205679702#1" to="24160012#1" /><trip id="roi_trip_3" type="veh_passenger" depart="52.17" from="431981407" to="535922410" /><trip id="roi_trip_4" type="veh_passenger" depart="69.57" from="199885791" to="1205679702#1" /><trip id="roi_trip_5" type="veh_passenger" depart="86.96" from="1163917760" to="24160012#1" /><trip id="roi_trip_6" type="veh_passenger" depart="104.35" from="24160010" to="-1205679702#0" /><trip id="roi_trip_7" type="veh_passenger" depart="121.74" from="535922410" to="199885792" /><trip id="roi_trip_8" type="veh_passenger" depart="139.13" from="24160007#0" to="24160010" /><trip id="roi_trip_9" type="veh_passenger" depart="156.52" from="895708421" to="1168273992-AddedOffRampEdge" /><trip id="roi_trip_10" type="veh_passenger" depart="173.91" from="-1205679702#0" to="1163917760" /><trip id="roi_trip_11" type="veh_passenger" depart="191.3" from="24160010" to="199885792" /><trip id="roi_trip_12" type="veh_passenger" depart="208.7" from="24160008" to="431981408#0" /><trip id="roi_trip_13" type="veh_passenger" depart="226.09" from="423997744" to="24160008" /><trip id="roi_trip_14" type="veh_passenger" depart="243.48" from="1168273992-AddedOffRampEdge" to="535922409" /><trip id="roi_trip_15" type="veh_passenger" depart="260.87" from="24160007#1" to="423997744" /><trip id="roi_trip_16" type="veh_passenger" depart="278.26" from="24160011" to="24160007#1" /><trip id="roi_trip_17" type="veh_passenger" depart="295.65" from="-1205679702#1" to="431981408#0" /><trip id="roi_trip_18" type="veh_passenger" depart="313.04" from="24160009" to="535922410-AddedOnRampEdge" /><trip id="roi_trip_19" type="veh_passenger" depart="330.43" from="1163917760" to="1205679702#0" /><trip id="roi_trip_20" type="veh_passenger" depart="347.83" from="24160009" to="1168283956" /><trip id="roi_trip_21" type="veh_passenger" depart="365.22" from="24160007#1" to="423997744" /><trip id="roi_trip_22" type="veh_passenger" depart="382.61" from="25042886" to="-1205679702#0" /><trip id="roi_trip_23" type="veh_passenger" depart="400.0" from="535922410" to="25042886" /><trip id="roi_trip_24" type="veh_passenger" depart="417.39" from="1163917760" to="1168283956" /><trip id="roi_trip_25" type="veh_passenger" depart="434.78" from="535922410-AddedOnRampEdge" to="24160008" /><trip id="roi_trip_26" type="veh_passenger" depart="452.17" from="25042886" to="-1205679702#1" /><trip id="roi_trip_27" type="veh_passenger" depart="469.57" from="199885792" to="423997744" /><trip id="roi_trip_28" type="veh_passenger" depart="486.96" from="24160007#1" to="1168109380" /><trip id="roi_trip_29" type="veh_passenger" depart="504.35" from="1205679702#1" to="535922409" /><trip id="roi_trip_30" type="veh_passenger" depart="521.74" from="-1205679702#1" to="423997744" /><trip id="roi_trip_31" type="veh_passenger" depart="539.13" from="1205679702#1" to="24160008" /><trip id="roi_trip_32" type="veh_passenger" depart="556.52" from="-1205679702#1" to="24160011" /><trip id="roi_trip_33" type="veh_passenger" depart="573.91" from="895708421" to="423997744" /><trip id="roi_trip_34" type="veh_passenger" depart="591.3" from="24160009" to="431981408#0" /><trip id="roi_trip_35" type="veh_passenger" depart="608.7" from="895708421" to="24160020" /><trip id="roi_trip_36" type="veh_passenger" depart="626.09" from="24160008" to="535922409" /><trip id="roi_trip_37" type="veh_passenger" depart="643.48" from="431989326" to="431981407" /><trip id="roi_trip_38" type="veh_passenger" depart="660.87" from="431981408#0" to="1205679702#1" /><trip id="roi_trip_39" type="veh_passenger" depart="678.26" from="1205679702#1" to="1168283956" /><trip id="roi_trip_40" type="veh_passenger" depart="695.65" from="25042886" to="-1205679702#1" /><trip id="roi_trip_41" type="veh_passenger" depart="713.04" from="1168283956" to="1168273992-AddedOffRampEdge" /><trip id="roi_trip_42" type="veh_passenger" depart="730.43" from="1168273992-AddedOffRampEdge" to="423997744" /><trip id="roi_trip_43" type="veh_passenger" depart="747.83" from="24160010" to="1168283956" /><trip id="roi_trip_44" type="veh_passenger" depart="765.22" from="24160007#1" to="24160008" /><trip id="roi_trip_45" type="veh_passenger" depart="782.61" from="535922409" to="98246932" /><trip id="roi_trip_46" type="veh_passenger" depart="800.0" from="895708421" to="423997744" /><trip id="roi_trip_47" type="veh_passenger" depart="817.39" from="1168109380" to="1205679702#0" /><trip id="roi_trip_48" type="veh_passenger" depart="834.78" from="24160020" to="24160007#0" /><trip id="roi_trip_49" type="veh_passenger" depart="852.17" from="24160009" to="24160007#0" /><trip id="roi_trip_50" type="veh_passenger" depart="869.57" from="1168273992-AddedOffRampEdge" to="895708421" /><trip id="roi_trip_51" type="veh_passenger" depart="886.96" from="1163917760" to="199885792" /><trip id="roi_trip_52" type="veh_passenger" depart="904.35" from="423997744" to="535922409" /><trip id="roi_trip_53" type="veh_passenger" depart="921.74" from="24160007#0" to="25042886" /><trip id="roi_trip_54" type="veh_passenger" depart="939.13" from="-1205679702#1" to="1205679702#0" /><trip id="roi_trip_55" type="veh_passenger" depart="956.52" from="24160020" to="1163917760" /><trip id="roi_trip_56" type="veh_passenger" depart="973.91" from="535922410-AddedOnRampEdge" to="1168109380" /><trip id="roi_trip_57" type="veh_passenger" depart="991.3" from="199885791" to="423997744" /><trip id="roi_trip_58" type="veh_passenger" depart="1008.7" from="24160010" to="199885791" /><trip id="roi_trip_59" type="veh_passenger" depart="1026.09" from="1163917760" to="98246932" /><trip id="roi_trip_60" type="veh_passenger" depart="1043.48" from="1205679702#0" to="24160007#2" /><trip id="roi_trip_61" type="veh_passenger" depart="1060.87" from="535922410" to="1205679702#1" /><trip id="roi_trip_62" type="veh_passenger" depart="1078.26" from="24160008" to="24160011" /><trip id="roi_trip_63" type="veh_passenger" depart="1095.65" from="431981407" to="25042886" /><trip id="roi_trip_64" type="veh_passenger" depart="1113.04" from="535922409" to="24160010" /><trip id="roi_trip_65" type="veh_passenger" depart="1130.43" from="1168273992-AddedOffRampEdge" to="98246932" /><trip id="roi_trip_66" type="veh_passenger" depart="1147.83" from="1168273992-AddedOffRampEdge" to="1168283956" /><trip id="roi_trip_67" type="veh_passenger" depart="1165.22" from="24160007#1" to="431989326" /><trip id="roi_trip_68" type="veh_passenger" depart="1182.61" from="428326182" to="24160007#2" /><trip id="roi_trip_69" type="veh_passenger" depart="1200.0" from="24160011" to="24160007#1" /><trip id="roi_trip_70" type="veh_passenger" depart="1217.39" from="431981407" to="535922409" /><trip id="roi_trip_71" type="veh_passenger" depart="1234.78" from="24160012#1" to="423997744" /><trip id="roi_trip_72" type="veh_passenger" depart="1252.17" from="24160009" to="24160007#2" /><trip id="roi_trip_73" type="veh_passenger" depart="1269.57" from="24160007#1" to="24160010" /><trip id="roi_trip_74" type="veh_passenger" depart="1286.96" from="24160007#0" to="24160020" /><trip id="roi_trip_75" type="veh_passenger" depart="1304.35" from="1168273992-AddedOffRampEdge" to="24160012#1" /><trip id="roi_trip_76" type="veh_passenger" depart="1321.74" from="98246932" to="24160010" /><trip id="roi_trip_77" type="veh_passenger" depart="1339.13" from="431981407" to="199885792" /><trip id="roi_trip_78" type="veh_passenger" depart="1356.52" from="1168283956" to="431981407" /><trip id="roi_trip_79" type="veh_passenger" depart="1373.91" from="1168109380" to="199885791" /><trip id="roi_trip_80" type="veh_passenger" depart="1391.3" from="24160007#1" to="1205679702#0" /><trip id="roi_trip_81" type="veh_passenger" depart="1408.7" from="431989326" to="535922410" /><trip id="roi_trip_82" type="veh_passenger" depart="1426.09" from="431981408#0" to="1205679702#0" /><trip id="roi_trip_83" type="veh_passenger" depart="1443.48" from="1168273992-AddedOffRampEdge" to="895708421" /><trip id="roi_trip_84" type="veh_passenger" depart="1460.87" from="1168283956" to="1168273992-AddedOffRampEdge" /><trip id="roi_trip_85" type="veh_passenger" depart="1478.26" from="1168283956" to="1168109380" /><trip id="roi_trip_86" type="veh_passenger" depart="1495.65" from="24160008" to="431989326" /><trip id="roi_trip_87" type="veh_passenger" depart="1513.04" from="24160009" to="24160012#1" /><trip id="roi_trip_88" type="veh_passenger" depart="1530.43" from="423997744" to="535922409" /><trip id="roi_trip_89" type="veh_passenger" depart="1547.83" from="1168273992-AddedOffRampEdge" to="428326182" /><trip id="roi_trip_90" type="veh_passenger" depart="1565.22" from="1168283956" to="98246932" /><trip id="roi_trip_91" type="veh_passenger" depart="1582.61" from="314066421-AddedOffRampEdge" to="199885791" /><trip id="roi_trip_92" type="veh_passenger" depart="1600.0" from="1205679702#1" to="24160009" /><trip id="roi_trip_93" type="veh_passenger" depart="1617.39" from="-1205679702#0" to="24160007#2" /><trip id="roi_trip_94" type="veh_passenger" depart="1634.78" from="431981407" to="431981408#0" /><trip id="roi_trip_95" type="veh_passenger" depart="1652.17" from="-1205679702#1" to="1168273992-AddedOffRampEdge" /><trip id="roi_trip_96" type="veh_passenger" depart="1669.57" from="1205679702#1" to="199885791" /><trip id="roi_trip_97" type="veh_passenger" depart="1686.96" from="423997744" to="24160012#1" /><trip id="roi_trip_98" type="veh_passenger" depart="1704.35" from="535922409" to="199885791" /><trip id="roi_trip_99" type="veh_passenger" depart="1721.74" from="24160008" to="431989326" /><trip id="roi_trip_100" type="veh_passenger" depart="1739.13" from="431981407" to="1168283956" /><trip id="roi_trip_101" type="veh_passenger" depart="1756.52" from="24160008" to="423997744" /><trip id="roi_trip_102" type="veh_passenger" depart="1773.91" from="24160010" to="-1205679702#1" /><trip id="roi_trip_103" type="veh_passenger" depart="1791.3" from="199885792" to="24160020" /><trip id="roi_trip_104" type="veh_passenger" depart="1808.7" from="1205679702#1" to="314066421-AddedOffRampEdge" /><trip id="roi_trip_105" type="veh_passenger" depart="1826.09" from="431989326" to="24160010" /><trip id="roi_trip_106" type="veh_passenger" depart="1843.48" from="314066421-AddedOffRampEdge" to="1168283956" /><trip id="roi_trip_107" type="veh_passenger" depart="1860.87" from="535922410-AddedOnRampEdge" to="-1205679702#0" /><trip id="roi_trip_108" type="veh_passenger" depart="1878.26" from="1205679702#1" to="431989326" /><trip id="roi_trip_109" type="veh_passenger" depart="1895.65" from="24160012#1" to="24160010" /><trip id="roi_trip_110" type="veh_passenger" depart="1913.04" from="1168273992-AddedOffRampEdge" to="199885791" /><trip id="roi_trip_111" type="veh_passenger" depart="1930.43" from="431981408#0" to="24160011" /><trip id="roi_trip_112" type="veh_passenger" depart="1947.83" from="431981408#0" to="431989326" /><trip id="roi_trip_113" type="veh_passenger" depart="1965.22" from="24160010" to="199885791" /><trip id="roi_trip_114" type="veh_passenger" depart="1982.61" from="24160012#1" to="1163917760" /><trip id="roi_trip_115" type="veh_passenger" depart="2000.0" from="1205679702#1" to="24160007#1" /><trip id="roi_trip_116" type="veh_passenger" depart="2017.39" from="1168109380" to="431981408#0" /><trip id="roi_trip_117" type="veh_passenger" depart="2034.78" from="1168109380" to="535922410-AddedOnRampEdge" /><trip id="roi_trip_118" type="veh_passenger" depart="2052.17" from="25042886" to="1168283956" /><trip id="roi_trip_119" type="veh_passenger" depart="2069.57" from="535922409" to="431981408#0" /><trip id="roi_trip_120" type="veh_passenger" depart="2086.96" from="199885791" to="24160012#1" /><trip id="roi_trip_121" type="veh_passenger" depart="2104.35" from="428326182" to="25042886" /><trip id="roi_trip_122" type="veh_passenger" depart="2121.74" from="24160007#1" to="535922410" /><trip id="roi_trip_123" type="veh_passenger" depart="2139.13" from="-1205679702#1" to="24160007#0" /><trip id="roi_trip_124" type="veh_passenger" depart="2156.52" from="423997744" to="1168273992-AddedOffRampEdge" /><trip id="roi_trip_125" type="veh_passenger" depart="2173.91" from="1168109380" to="1163917760" /><trip id="roi_trip_126" type="veh_passenger" depart="2191.3" from="24160007#2" to="24160008" /><trip id="roi_trip_127" type="veh_passenger" depart="2208.7" from="428326182" to="535922410-AddedOnRampEdge" /><trip id="roi_trip_128" type="veh_passenger" depart="2226.09" from="-1205679702#0" to="24160008" /><trip id="roi_trip_129" type="veh_passenger" depart="2243.48" from="895708421" to="24160011" /><trip id="roi_trip_130" type="veh_passenger" depart="2260.87" from="24160007#1" to="895708421" /><trip id="roi_trip_131" type="veh_passenger" depart="2278.26" from="535922410-AddedOnRampEdge" to="24160007#2" /><trip id="roi_trip_132" type="veh_passenger" depart="2295.65" from="-1205679702#1" to="314066421-AddedOffRampEdge" /><trip id="roi_trip_133" type="veh_passenger" depart="2313.04" from="1168109380" to="-1205679702#1" /><trip id="roi_trip_134" type="veh_passenger" depart="2330.43" from="314066421-AddedOffRampEdge" to="24160011" /><trip id="roi_trip_135" type="veh_passenger" depart="2347.83" from="1205679702#1" to="25042886" /><trip id="roi_trip_136" type="veh_passenger" depart="2365.22" from="24160012#1" to="1168273992-AddedOffRampEdge" /><trip id="roi_trip_137" type="veh_passenger" depart="2382.61" from="535922410-AddedOnRampEdge" to="24160007#2" /><trip id="roi_trip_138" type="veh_passenger" depart="2400.0" from="1168109380" to="24160007#2" /><trip id="roi_trip_139" type="veh_passenger" depart="2417.39" from="24160007#2" to="1205679702#0" /><trip id="roi_trip_140" type="veh_passenger" depart="2434.78" from="1163917760" to="24160007#2" /><trip id="roi_trip_141" type="veh_passenger" depart="2452.17" from="431981408#0" to="535922409" /><trip id="roi_trip_142" type="veh_passenger" depart="2469.57" from="535922410" to="24160007#2" /><trip id="roi_trip_143" type="veh_passenger" depart="2486.96" from="431989326" to="199885791" /><trip id="roi_trip_144" type="veh_passenger" depart="2504.35" from="423997744" to="1205679702#1" /><trip id="roi_trip_145" type="veh_passenger" depart="2521.74" from="199885792" to="895708421" /><trip id="roi_trip_146" type="veh_passenger" depart="2539.13" from="535922410" to="1205679702#0" /><trip id="roi_trip_147" type="veh_passenger" depart="2556.52" from="24160008" to="1205679702#0" /><trip id="roi_trip_148" type="veh_passenger" depart="2573.91" from="1168109380" to="-1205679702#0" /><trip id="roi_trip_149" type="veh_passenger" depart="2591.3" from="-1205679702#1" to="535922409" /><trip id="roi_trip_150" type="veh_passenger" depart="2608.7" from="535922409" to="24160020" /><trip id="roi_trip_151" type="veh_passenger" depart="2626.09" from="423997744" to="431981408#0" /><trip id="roi_trip_152" type="veh_passenger" depart="2643.48" from="24160010" to="431989326" /><trip id="roi_trip_153" type="veh_passenger" depart="2660.87" from="1168109380" to="24160007#0" /><trip id="roi_trip_154" type="veh_passenger" depart="2678.26" from="431981408#0" to="24160012#1" /><trip id="roi_trip_155" type="veh_passenger" depart="2695.65" from="314066421-AddedOffRampEdge" to="1163917760" /><trip id="roi_trip_156" type="veh_passenger" depart="2713.04" from="314066421-AddedOffRampEdge" to="1205679702#1" /><trip id="roi_trip_157" type="veh_passenger" depart="2730.43" from="-1205679702#0" to="1205679702#0" /><trip id="roi_trip_158" type="veh_passenger" depart="2747.83" from="314066421-AddedOffRampEdge" to="1168109380" /><trip id="roi_trip_159" type="veh_passenger" depart="2765.22" from="24160007#0" to="98246932" /><trip id="roi_trip_160" type="veh_passenger" depart="2782.61" from="535922410-AddedOnRampEdge" to="199885791" /><trip id="roi_trip_161" type="veh_passenger" depart="2800.0" from="428326182" to="24160010" /><trip id="roi_trip_162" type="veh_passenger" depart="2817.39" from="24160020" to="24160010" /><trip id="roi_trip_163" type="veh_passenger" depart="2834.78" from="24160007#0" to="428326182" /><trip id="roi_trip_164" type="veh_passenger" depart="2852.17" from="199885791" to="-1205679702#1" /><trip id="roi_trip_165" type="veh_passenger" depart="2869.57" from="431981407" to="428326182" /><trip id="roi_trip_166" type="veh_passenger" depart="2886.96" from="24160007#0" to="423997744" /><trip id="roi_trip_167" type="veh_passenger" depart="2904.35" from="24160010" to="25042886" /><trip id="roi_trip_168" type="veh_passenger" depart="2921.74" from="431981408#0" to="199885792" /><trip id="roi_trip_169" type="veh_passenger" depart="2939.13" from="24160011" to="535922409" /><trip id="roi_trip_170" type="veh_passenger" depart="2956.52" from="431981408#0" to="895708421" /><trip id="roi_trip_171" type="veh_passenger" depart="2973.91" from="431981408#0" to="1168283956" /><trip id="roi_trip_172" type="veh_passenger" depart="2991.3" from="24160007#2" to="1205679702#0" /><trip id="roi_trip_173" type="veh_passenger" depart="3008.7" from="431981407" to="24160008" /><trip id="roi_trip_174" type="veh_passenger" depart="3026.09" from="24160007#2" to="535922409" /><trip id="roi_trip_175" type="veh_passenger" depart="3043.48" from="24160009" to="25042886" /><trip id="roi_trip_176" type="veh_passenger" depart="3060.87" from="24160008" to="24160020" /><trip id="roi_trip_177" type="veh_passenger" depart="3078.26" from="431989326" to="1168283956" /><trip id="roi_trip_178" type="veh_passenger" depart="3095.65" from="1168283956" to="-1205679702#1" /><trip id="roi_trip_179" type="veh_passenger" depart="3113.04" from="-1205679702#0" to="24160007#2" /><trip id="roi_trip_180" type="veh_passenger" depart="3130.43" from="431981407" to="24160007#0" /><trip id="roi_trip_181" type="veh_passenger" depart="3147.83" from="1205679702#1" to="431981408#0" /><trip id="roi_trip_182" type="veh_passenger" depart="3165.22" from="1205679702#1" to="24160012#1" /><trip id="roi_trip_183" type="veh_passenger" depart="3182.61" from="24160008" to="24160010" /><trip id="roi_trip_184" type="veh_passenger" depart="3200.0" from="24160008" to="535922410" /><trip id="roi_trip_185" type="veh_passenger" depart="3217.39" from="1168283956" to="-1205679702#0" /><trip id="roi_trip_186" type="veh_passenger" depart="3234.78" from="431989326" to="-1205679702#1" /><trip id="roi_trip_187" type="veh_passenger" depart="3252.17" from="535922409" to="428326182" /><trip id="roi_trip_188" type="veh_passenger" depart="3269.57" from="98246932" to="1205679702#1" /><trip id="roi_trip_189" type="veh_passenger" depart="3286.96" from="98246932" to="895708421" /><trip id="roi_trip_190" type="veh_passenger" depart="3304.35" from="1205679702#0" to="423997744" /><trip id="roi_trip_191" type="veh_passenger" depart="3321.74" from="25042886" to="1205679702#0" /><trip id="roi_trip_192" type="veh_passenger" depart="3339.13" from="24160012#1" to="24160020" /><trip id="roi_trip_193" type="veh_passenger" depart="3356.52" from="314066421-AddedOffRampEdge" to="1168283956" /><trip id="roi_trip_194" type="veh_passenger" depart="3373.91" from="314066421-AddedOffRampEdge" to="98246932" /><trip id="roi_trip_195" type="veh_passenger" depart="3391.3" from="1163917760" to="24160007#1" /><trip id="roi_trip_196" type="veh_passenger" depart="3408.7" from="24160007#0" to="24160008" /><trip id="roi_trip_197" type="veh_passenger" depart="3426.09" from="25042886" to="24160011" /><trip id="roi_trip_198" type="veh_passenger" depart="3443.48" from="24160010" to="1205679702#1" /><trip id="roi_trip_199" type="veh_passenger" depart="3460.87" from="24160008" to="24160020" /><trip id="roi_trip_200" type="veh_passenger" depart="3478.26" from="24160010" to="25042886" /><trip id="roi_trip_201" type="veh_passenger" depart="3495.65" from="535922409" to="895708421" /><trip id="roi_trip_202" type="veh_passenger" depart="3513.04" from="24160007#1" to="98246932" /><trip id="roi_trip_203" type="veh_passenger" depart="3530.43" from="24160012#1" to="24160007#2" /><trip id="roi_trip_204" type="veh_passenger" depart="3547.83" from="1168273992-AddedOffRampEdge" to="24160011" /><trip id="roi_trip_205" type="veh_passenger" depart="3565.22" from="1163917760" to="1168273992-AddedOffRampEdge" /><trip id="roi_trip_206" type="veh_passenger" depart="3582.61" from="-1205679702#0" to="431989326" /></trips>