<?xml version='1.0' encoding='UTF-8'?>
<trips><trip id="roi_trip_0" type="veh_passenger" depart="0.0" from="1205679702#0" to="98246932" /><trip id="roi_trip_1" type="veh_passenger" depart="8.67" from="431981408#0" to="24160008" /><trip id="roi_trip_2" type="veh_passenger" depart="17.35" from="428326182" to="24160007#2" /><trip id="roi_trip_3" type="veh_passenger" depart="26.02" from="1168109380" to="24160008" /><trip id="roi_trip_4" type="veh_passenger" depart="34.7" from="24160008" to="24160007#1" /><trip id="roi_trip_5" type="veh_passenger" depart="43.37" from="1168283956" to="24160007#1" /><trip id="roi_trip_6" type="veh_passenger" depart="52.05" from="431981407" to="24160010" /><trip id="roi_trip_7" type="veh_passenger" depart="60.72" from="98246932" to="1205679702#0" /><trip id="roi_trip_8" type="veh_passenger" depart="69.4" from="24160011" to="24160008" /><trip id="roi_trip_9" type="veh_passenger" depart="78.07" from="24160012#1" to="1168109380" /><trip id="roi_trip_10" type="veh_passenger" depart="86.75" from="24160007#0" to="199885792" /><trip id="roi_trip_11" type="veh_passenger" depart="95.42" from="431989326" to="895708421" /><trip id="roi_trip_12" type="veh_passenger" depart="104.1" from="1205679702#1" to="199885792" /><trip id="roi_trip_13" type="veh_passenger" depart="112.77" from="24160011" to="24160007#2" /><trip id="roi_trip_14" type="veh_passenger" depart="121.45" from="535922409" to="1168273992-AddedOffRampEdge" /><trip id="roi_trip_15" type="veh_passenger" depart="130.12" from="535922410" to="24160020" /><trip id="roi_trip_16" type="veh_passenger" depart="138.8" from="895708421" to="1205679702#1" /><trip id="roi_trip_17" type="veh_passenger" depart="147.47" from="24160011" to="1168109380" /><trip id="roi_trip_18" type="veh_passenger" depart="156.14" from="24160007#0" to="24160007#1" /><trip id="roi_trip_19" type="veh_passenger" depart="164.82" from="-1205679702#0" to="98246932" /><trip id="roi_trip_20" type="veh_passenger" depart="173.49" from="24160020" to="431981408#0" /><trip id="roi_trip_21" type="veh_passenger" depart="182.17" from="895708421" to="24160009" /><trip id="roi_trip_22" type="veh_passenger" depart="190.84" from="98246932" to="24160007#0" /><trip id="roi_trip_23" type="veh_passenger" depart="199.52" from="535922410" to="199885791" /><trip id="roi_trip_24" type="veh_passenger" depart="208.19" from="1168109380" to="535922410-AddedOnRampEdge" /><trip id="roi_trip_25" type="veh_passenger" depart="216.87" from="98246932" to="25042886" /><trip id="roi_trip_26" type="veh_passenger" depart="225.54" from="24160007#1" to="1168273992-AddedOffRampEdge" /><trip id="roi_trip_27" type="veh_passenger" depart="234.22" from="24160007#1" to="431981407" /><trip id="roi_trip_28" type="veh_passenger" depart="242.89" from="431989326" to="314066421-AddedOffRampEdge" /><trip id="roi_trip_29" type="veh_passenger" depart="251.57" from="431981407" to="24160009" /><trip id="roi_trip_30" type="veh_passenger" depart="260.24" from="1168109380" to="431981407" /><trip id="roi_trip_31" type="veh_passenger" depart="268.92" from="1168109380" to="199885792" /><trip id="roi_trip_32" type="veh_passenger" depart="277.59" from="428326182" to="535922410-AddedOnRampEdge" /><trip id="roi_trip_33" type="veh_passenger" depart="286.27" from="24160007#1" to="1168109380" /><trip id="roi_trip_34" type="veh_passenger" depart="294.94" from="24160007#1" to="1163917760" /><trip id="roi_trip_35" type="veh_passenger" depart="303.61" from="98246932" to="24160009" /><trip id="roi_trip_36" type="veh_passenger" depart="312.29" from="1163917760" to="1205679702#0" /><trip id="roi_trip_37" type="veh_passenger" depart="320.96" from="199885791" to="431981407" /><trip id="roi_trip_38" type="veh_passenger" depart="329.64" from="535922410-AddedOnRampEdge" to="431989326" /><trip id="roi_trip_39" type="veh_passenger" depart="338.31" from="431981408#0" to="24160011" /><trip id="roi_trip_40" type="veh_passenger" depart="346.99" from="428326182" to="24160009" /><trip id="roi_trip_41" type="veh_passenger" depart="355.66" from="24160007#2" to="314066421-AddedOffRampEdge" /><trip id="roi_trip_42" type="veh_passenger" depart="364.34" from="535922410-AddedOnRampEdge" to="1168109380" /><trip id="roi_trip_43" type="veh_passenger" depart="373.01" from="314066421-AddedOffRampEdge" to="24160007#2" /><trip id="roi_trip_44" type="veh_passenger" depart="381.69" from="199885792" to="1205679702#1" /><trip id="roi_trip_45" type="veh_passenger" depart="390.36" from="98246932" to="314066421-AddedOffRampEdge" /><trip id="roi_trip_46" type="veh_passenger" depart="399.04" from="431989326" to="895708421" /><trip id="roi_trip_47" type="veh_passenger" depart="407.71" from="-1205679702#1" to="24160012#1" /><trip id="roi_trip_48" type="veh_passenger" depart="416.39" from="314066421-AddedOffRampEdge" to="24160008" /><trip id="roi_trip_49" type="veh_passenger" depart="425.06" from="1168109380" to="1205679702#0" /><trip id="roi_trip_50" type="veh_passenger" depart="433.73" from="535922410-AddedOnRampEdge" to="-1205679702#1" /><trip id="roi_trip_51" type="veh_passenger" depart="442.41" from="24160007#1" to="24160009" /><trip id="roi_trip_52" type="veh_passenger" depart="451.08" from="24160007#1" to="535922410-AddedOnRampEdge" /><trip id="roi_trip_53" type="veh_passenger" depart="459.76" from="1168283956" to="1205679702#1" /><trip id="roi_trip_54" type="veh_passenger" depart="468.43" from="-1205679702#0" to="25042886" /><trip id="roi_trip_55" type="veh_passenger" depart="477.11" from="24160008" to="24160007#1" /><trip id="roi_trip_56" type="veh_passenger" depart="485.78" from="428326182" to="431981407" /><trip id="roi_trip_57" type="veh_passenger" depart="494.46" from="24160009" to="24160007#2" /><trip id="roi_trip_58" type="veh_passenger" depart="503.13" from="1168273992-AddedOffRampEdge" to="895708421" /><trip id="roi_trip_59" type="veh_passenger" depart="511.81" from="535922410-AddedOnRampEdge" to="24160010" /><trip id="roi_trip_60" type="veh_passenger" depart="520.48" from="535922409" to="1205679702#1" /><trip id="roi_trip_61" type="veh_passenger" depart="529.16" from="24160020" to="1205679702#0" /><trip id="roi_trip_62" type="veh_passenger" depart="537.83" from="1168273992-AddedOffRampEdge" to="1163917760" /><trip id="roi_trip_63" type="veh_passenger" depart="546.51" from="25042886" to="1168283956" /><trip id="roi_trip_64" type="veh_passenger" depart="555.18" from="431981408#0" to="428326182" /><trip id="roi_trip_65" type="veh_passenger" depart="563.86" from="24160007#1" to="24160011" /><trip id="roi_trip_66" type="veh_passenger" depart="572.53" from="24160007#1" to="24160007#0" /><trip id="roi_trip_67" type="veh_passenger" depart="581.2" from="428326182" to="423997744" /><trip id="roi_trip_68" type="veh_passenger" depart="589.88" from="199885792" to="431981407" /><trip id="roi_trip_69" type="veh_passenger" depart="598.55" from="24160012#1" to="431981408#0" /><trip id="roi_trip_70" type="veh_passenger" depart="607.23" from="-1205679702#0" to="1168273992-AddedOffRampEdge" /><trip id="roi_trip_71" type="veh_passenger" depart="615.9" from="24160007#0" to="535922409" /><trip id="roi_trip_72" type="veh_passenger" depart="624.58" from="1205679702#1" to="431981407" /><trip id="roi_trip_73" type="veh_passenger" depart="633.25" from="314066421-AddedOffRampEdge" to="1168109380" /><trip id="roi_trip_74" type="veh_passenger" depart="641.93" from="24160011" to="314066421-AddedOffRampEdge" /><trip id="roi_trip_75" type="veh_passenger" depart="650.6" from="24160007#1" to="535922409" /><trip id="roi_trip_76" type="veh_passenger" depart="659.28" from="895708421" to="24160010" /><trip id="roi_trip_77" type="veh_passenger" depart="667.95" from="423997744" to="431981407" /><trip id="roi_trip_78" type="veh_passenger" depart="676.63" from="24160010" to="24160020" /><trip id="roi_trip_79" type="veh_passenger" depart="685.3" from="24160007#2" to="423997744" /><trip id="roi_trip_80" type="veh_passenger" depart="693.98" from="199885792" to="1163917760" /><trip id="roi_trip_81" type="veh_passenger" depart="702.65" from="431981407" to="1205679702#0" /><trip id="roi_trip_82" type="veh_passenger" depart="711.33" from="535922410-AddedOnRampEdge" to="431981408#0" /><trip id="roi_trip_83" type="veh_passenger" depart="720.0" from="199885792" to="895708421" /><trip id="roi_trip_84" type="veh_passenger" depart="728.67" from="24160007#1" to="199885792" /><trip id="roi_trip_85" type="veh_passenger" depart="737.35" from="1163917760" to="24160007#1" /><trip id="roi_trip_86" type="veh_passenger" depart="746.02" from="199885792" to="24160007#1" /><trip id="roi_trip_87" type="veh_passenger" depart="754.7" from="199885792" to="24160009" /><trip id="roi_trip_88" type="veh_passenger" depart="763.37" from="24160007#2" to="535922410" /><trip id="roi_trip_89" type="veh_passenger" depart="772.05" from="535922410" to="1168109380" /><trip id="roi_trip_90" type="veh_passenger" depart="780.72" from="24160020" to="431981407" /><trip id="roi_trip_91" type="veh_passenger" depart="789.4" from="24160007#0" to="1168273992-AddedOffRampEdge" /><trip id="roi_trip_92" type="veh_passenger" depart="798.07" from="1163917760" to="431981408#0" /><trip id="roi_trip_93" type="veh_passenger" depart="806.75" from="199885792" to="24160011" /><trip id="roi_trip_94" type="veh_passenger" depart="815.42" from="314066421-AddedOffRampEdge" to="895708421" /><trip id="roi_trip_95" type="veh_passenger" depart="824.1" from="431981407" to="1168273992-AddedOffRampEdge" /><trip id="roi_trip_96" type="veh_passenger" depart="832.77" from="-1205679702#1" to="895708421" /><trip id="roi_trip_97" type="veh_passenger" depart="841.45" from="535922409" to="431981408#0" /><trip id="roi_trip_98" type="veh_passenger" depart="850.12" from="535922410-AddedOnRampEdge" to="1168109380" /><trip id="roi_trip_99" type="veh_passenger" depart="858.8" from="431981408#0" to="-1205679702#0" /><trip id="roi_trip_100" type="veh_passenger" depart="867.47" from="314066421-AddedOffRampEdge" to="24160008" /><trip id="roi_trip_101" type="veh_passenger" depart="876.14" from="1168109380" to="1163917760" /><trip id="roi_trip_102" type="veh_passenger" depart="884.82" from="24160007#1" to="1163917760" /><trip id="roi_trip_103" type="veh_passenger" depart="893.49" from="895708421" to="1168273992-AddedOffRampEdge" /><trip id="roi_trip_104" type="veh_passenger" depart="902.17" from="24160010" to="24160007#0" /><trip id="roi_trip_105" type="veh_passenger" depart="910.84" from="428326182" to="24160009" /><trip id="roi_trip_106" type="veh_passenger" depart="919.52" from="431981408#0" to="-1205679702#1" /><trip id="roi_trip_107" type="veh_passenger" depart="928.19" from="1168109380" to="24160011" /><trip id="roi_trip_108" type="veh_passenger" depart="936.87" from="314066421-AddedOffRampEdge" to="535922409" /><trip id="roi_trip_109" type="veh_passenger" depart="945.54" from="24160020" to="24160012#1" /><trip id="roi_trip_110" type="veh_passenger" depart="954.22" from="314066421-AddedOffRampEdge" to="431981408#0" /><trip id="roi_trip_111" type="veh_passenger" depart="962.89" from="1205679702#1" to="24160020" /><trip id="roi_trip_112" type="veh_passenger" depart="971.57" from="-1205679702#1" to="1168283956" /><trip id="roi_trip_113" type="veh_passenger" depart="980.24" from="24160020" to="24160011" /><trip id="roi_trip_114" type="veh_passenger" depart="988.92" from="24160010" to="535922410" /><trip id="roi_trip_115" type="veh_passenger" depart="997.59" from="1168273992-AddedOffRampEdge" to="24160009" /><trip id="roi_trip_116" type="veh_passenger" depart="1006.27" from="24160010" to="24160009" /><trip id="roi_trip_117" type="veh_passenger" depart="1014.94" from="431989326" to="1168273992-AddedOffRampEdge" /><trip id="roi_trip_118" type="veh_passenger" depart="1023.61" from="24160007#1" to="423997744" /><trip id="roi_trip_119" type="veh_passenger" depart="1032.29" from="535922409" to="24160009" /><trip id="roi_trip_120" type="veh_passenger" depart="1040.96" from="1205679702#1" to="24160011" /><trip id="roi_trip_121" type="veh_passenger" depart="1049.64" from="314066421-AddedOffRampEdge" to="1205679702#0" /><trip id="roi_trip_122" type="veh_passenger" depart="1058.31" from="1168283956" to="314066421-AddedOffRampEdge" /><trip id="roi_trip_123" type="veh_passenger" depart="1066.99" from="199885792" to="895708421" /><trip id="roi_trip_124" type="veh_passenger" depart="1075.66" from="24160012#1" to="24160011" /><trip id="roi_trip_125" type="veh_passenger" depart="1084.34" from="1163917760" to="199885792" /><trip id="roi_trip_126" type="veh_passenger" depart="1093.01" from="24160008" to="431981407" /><trip id="roi_trip_127" type="veh_passenger" depart="1101.69" from="24160009" to="428326182" /><trip id="roi_trip_128" type="veh_passenger" depart="1110.36" from="24160007#1" to="431989326" /><trip id="roi_trip_129" type="veh_passenger" depart="1119.04" from="24160007#2" to="431989326" /><trip id="roi_trip_130" type="veh_passenger" depart="1127.71" from="199885791" to="314066421-AddedOffRampEdge" /><trip id="roi_trip_131" type="veh_passenger" depart="1136.39" from="428326182" to="98246932" /><trip id="roi_trip_132" type="veh_passenger" depart="1145.06" from="1205679702#0" to="535922410-AddedOnRampEdge" /><trip id="roi_trip_133" type="veh_passenger" depart="1153.73" from="535922409" to="1205679702#0" /><trip id="roi_trip_134" type="veh_passenger" depart="1162.41" from="431989326" to="98246932" /><trip id="roi_trip_135" type="veh_passenger" depart="1171.08" from="24160008" to="98246932" /><trip id="roi_trip_136" type="veh_passenger" depart="1179.76" from="431989326" to="423997744" /><trip id="roi_trip_137" type="veh_passenger" depart="1188.43" from="24160011" to="1205679702#1" /><trip id="roi_trip_138" type="veh_passenger" depart="1197.11" from="24160012#1" to="431989326" /><trip id="roi_trip_139" type="veh_passenger" depart="1205.78" from="895708421" to="1205679702#0" /><trip id="roi_trip_140" type="veh_passenger" depart="1214.46" from="1168109380" to="423997744" /><trip id="roi_trip_141" type="veh_passenger" depart="1223.13" from="1163917760" to="25042886" /><trip id="roi_trip_142" type="veh_passenger" depart="1231.81" from="-1205679702#1" to="24160007#1" /><trip id="roi_trip_143" type="veh_passenger" depart="1240.48" from="24160012#1" to="1205679702#0" /><trip id="roi_trip_144" type="veh_passenger" depart="1249.16" from="535922410-AddedOnRampEdge" to="1205679702#1" /><trip id="roi_trip_145" type="veh_passenger" depart="1257.83" from="98246932" to="24160010" /><trip id="roi_trip_146" type="veh_passenger" depart="1266.51" from="423997744" to="314066421-AddedOffRampEdge" /><trip id="roi_trip_147" type="veh_passenger" depart="1275.18" from="1205679702#0" to="24160012#1" /><trip id="roi_trip_148" type="veh_passenger" depart="1283.86" from="24160007#2" to="535922409" /><trip id="roi_trip_149" type="veh_passenger" depart="1292.53" from="-1205679702#1" to="1168109380" /><trip id="roi_trip_150" type="veh_passenger" depart="1301.2" from="24160007#2" to="-1205679702#0" /><trip id="roi_trip_151" type="veh_passenger" depart="1309.88" from="423997744" to="24160007#1" /><trip id="roi_trip_152" type="veh_passenger" depart="1318.55" from="431989326" to="24160020" /><trip id="roi_trip_153" type="veh_passenger" depart="1327.23" from="24160012#1" to="423997744" /><trip id="roi_trip_154" type="veh_passenger" depart="1335.9" from="535922409" to="-1205679702#0" /><trip id="roi_trip_155" type="veh_passenger" depart="1344.58" from="24160007#2" to="1205679702#1" /><trip id="roi_trip_156" type="veh_passenger" depart="1353.25" from="24160007#2" to="431981408#0" /><trip id="roi_trip_157" type="veh_passenger" depart="1361.93" from="24160012#1" to="98246932" /><trip id="roi_trip_158" type="veh_passenger" depart="1370.6" from="-1205679702#1" to="-1205679702#0" /><trip id="roi_trip_159" type="veh_passenger" depart="1379.28" from="24160007#0" to="1163917760" /><trip id="roi_trip_160" type="veh_passenger" depart="1387.95" from="423997744" to="24160009" /><trip id="roi_trip_161" type="veh_passenger" depart="1396.63" from="895708421" to="428326182" /><trip id="roi_trip_162" type="veh_passenger" depart="1405.3" from="24160012#1" to="24160011" /><trip id="roi_trip_163" type="veh_passenger" depart="1413.98" from="98246932" to="24160020" /><trip id="roi_trip_164" type="veh_passenger" depart="1422.65" from="1163917760" to="199885791" /><trip id="roi_trip_165" type="veh_passenger" depart="1431.33" from="-1205679702#1" to="24160009" /><trip id="roi_trip_166" type="veh_passenger" depart="1440.0" from="431989326" to="-1205679702#0" /><trip id="roi_trip_167" type="veh_passenger" depart="1448.67" from="535922409" to="199885792" /><trip id="roi_trip_168" type="veh_passenger" depart="1457.35" from="98246932" to="25042886" /><trip id="roi_trip_169" type="veh_passenger" depart="1466.02" from="428326182" to="535922410-AddedOnRampEdge" /><trip id="roi_trip_170" type="veh_passenger" depart="1474.7" from="24160010" to="1205679702#1" /><trip id="roi_trip_171" type="veh_passenger" depart="1483.37" from="24160020" to="25042886" /><trip id="roi_trip_172" type="veh_passenger" depart="1492.05" from="-1205679702#1" to="535922410-AddedOnRampEdge" /><trip id="roi_trip_173" type="veh_passenger" depart="1500.72" from="199885791" to="1168109380" /><trip id="roi_trip_174" type="veh_passenger" depart="1509.4" from="-1205679702#1" to="314066421-AddedOffRampEdge" /><trip id="roi_trip_175" type="veh_passenger" depart="1518.07" from="98246932" to="431981407" /><trip id="roi_trip_176" type="veh_passenger" depart="1526.75" from="431981408#0" to="199885792" /><trip id="roi_trip_177" type="veh_passenger" depart="1535.42" from="24160010" to="428326182" /><trip id="roi_trip_178" type="veh_passenger" depart="1544.1" from="24160007#0" to="428326182" /><trip id="roi_trip_179" type="veh_passenger" depart="1552.77" from="199885792" to="428326182" /><trip id="roi_trip_180" type="veh_passenger" depart="1561.45" from="535922410" to="24160007#0" /><trip id="roi_trip_181" type="veh_passenger" depart="1570.12" from="431981407" to="24160020" /><trip id="roi_trip_182" type="veh_passenger" depart="1578.8" from="98246932" to="24160009" /><trip id="roi_trip_183" type="veh_passenger" depart="1587.47" from="24160007#1" to="431981407" /><trip id="roi_trip_184" type="veh_passenger" depart="1596.14" from="24160012#1" to="98246932" /><trip id="roi_trip_185" type="veh_passenger" depart="1604.82" from="895708421" to="24160007#1" /><trip id="roi_trip_186" type="veh_passenger" depart="1613.49" from="24160009" to="423997744" /><trip id="roi_trip_187" type="veh_passenger" depart="1622.17" from="24160007#1" to="535922410-AddedOnRampEdge" /><trip id="roi_trip_188" type="veh_passenger" depart="1630.84" from="1168273992-AddedOffRampEdge" to="1163917760" /><trip id="roi_trip_189" type="veh_passenger" depart="1639.52" from="24160020" to="428326182" /><trip id="roi_trip_190" type="veh_passenger" depart="1648.19" from="199885791" to="24160007#2" /><trip id="roi_trip_191" type="veh_passenger" depart="1656.87" from="24160020" to="1205679702#1" /><trip id="roi_trip_192" type="veh_passenger" depart="1665.54" from="24160007#2" to="199885791" /><trip id="roi_trip_193" type="veh_passenger" depart="1674.22" from="431989326" to="24160008" /><trip id="roi_trip_194" type="veh_passenger" depart="1682.89" from="431981408#0" to="1168109380" /><trip id="roi_trip_195" type="veh_passenger" depart="1691.57" from="25042886" to="24160009" /><trip id="roi_trip_196" type="veh_passenger" depart="1700.24" from="25042886" to="423997744" /><trip id="roi_trip_197" type="veh_passenger" depart="1708.92" from="199885791" to="24160008" /><trip id="roi_trip_198" type="veh_passenger" depart="1717.59" from="535922410" to="1168283956" /><trip id="roi_trip_199" type="veh_passenger" depart="1726.27" from="98246932" to="24160010" /><trip id="roi_trip_200" type="veh_passenger" depart="1734.94" from="-1205679702#1" to="535922409" /><trip id="roi_trip_201" type="veh_passenger" depart="1743.61" from="431989326" to="199885792" /><trip id="roi_trip_202" type="veh_passenger" depart="1752.29" from="535922410" to="1168109380" /><trip id="roi_trip_203" type="veh_passenger" depart="1760.96" from="24160007#0" to="24160010" /><trip id="roi_trip_204" type="veh_passenger" depart="1769.64" from="24160011" to="535922410" /><trip id="roi_trip_205" type="veh_passenger" depart="1778.31" from="199885792" to="535922410" /><trip id="roi_trip_206" type="veh_passenger" depart="1786.99" from="535922410-AddedOnRampEdge" to="-1205679702#0" /><trip id="roi_trip_207" type="veh_passenger" depart="1795.66" from="431989326" to="1168283956" /><trip id="roi_trip_208" type="veh_passenger" depart="1804.34" from="314066421-AddedOffRampEdge" to="24160010" /><trip id="roi_trip_209" type="veh_passenger" depart="1813.01" from="535922409" to="-1205679702#1" /><trip id="roi_trip_210" type="veh_passenger" depart="1821.69" from="431981407" to="24160012#1" /><trip id="roi_trip_211" type="veh_passenger" depart="1830.36" from="25042886" to="24160020" /><trip id="roi_trip_212" type="veh_passenger" depart="1839.04" from="1168283956" to="-1205679702#0" /><trip id="roi_trip_213" type="veh_passenger" depart="1847.71" from="-1205679702#1" to="431981408#0" /><trip id="roi_trip_214" type="veh_passenger" depart="1856.39" from="314066421-AddedOffRampEdge" to="24160020" /><trip id="roi_trip_215" type="veh_passenger" depart="1865.06" from="535922409" to="24160010" /><trip id="roi_trip_216" type="veh_passenger" depart="1873.73" from="535922409" to="535922410" /><trip id="roi_trip_217" type="veh_passenger" depart="1882.41" from="1168273992-AddedOffRampEdge" to="24160007#2" /><trip id="roi_trip_218" type="veh_passenger" depart="1891.08" from="24160009" to="895708421" /><trip id="roi_trip_219" type="veh_passenger" depart="1899.76" from="1168273992-AddedOffRampEdge" to="428326182" /><trip id="roi_trip_220" type="veh_passenger" depart="1908.43" from="-1205679702#1" to="535922409" /><trip id="roi_trip_221" type="veh_passenger" depart="1917.11" from="1168283956" to="24160007#2" /><trip id="roi_trip_222" type="veh_passenger" depart="1925.78" from="25042886" to="535922410" /><trip id="roi_trip_223" type="veh_passenger" depart="1934.46" from="24160007#2" to="1205679702#0" /><trip id="roi_trip_224" type="veh_passenger" depart="1943.13" from="98246932" to="428326182" /><trip id="roi_trip_225" type="veh_passenger" depart="1951.81" from="199885791" to="1168273992-AddedOffRampEdge" /><trip id="roi_trip_226" type="veh_passenger" depart="1960.48" from="98246932" to="24160011" /><trip id="roi_trip_227" type="veh_passenger" depart="1969.16" from="98246932" to="431981407" /><trip id="roi_trip_228" type="veh_passenger" depart="1977.83" from="535922410" to="535922409" /><trip id="roi_trip_229" type="veh_passenger" depart="1986.51" from="24160012#1" to="431989326" /><trip id="roi_trip_230" type="veh_passenger" depart="1995.18" from="24160012#1" to="24160007#1" /><trip id="roi_trip_231" type="veh_passenger" depart="2003.86" from="24160010" to="-1205679702#1" /><trip id="roi_trip_232" type="veh_passenger" depart="2012.53" from="24160007#2" to="1168283956" /><trip id="roi_trip_233" type="veh_passenger" depart="2021.2" from="24160009" to="1168283956" /><trip id="roi_trip_234" type="veh_passenger" depart="2029.88" from="199885792" to="199885791" /><trip id="roi_trip_235" type="veh_passenger" depart="2038.55" from="314066421-AddedOffRampEdge" to="1168109380" /><trip id="roi_trip_236" type="veh_passenger" depart="2047.23" from="423997744" to="24160009" /><trip id="roi_trip_237" type="veh_passenger" depart="2055.9" from="431981408#0" to="428326182" /><trip id="roi_trip_238" type="veh_passenger" depart="2064.58" from="1163917760" to="535922409" /><trip id="roi_trip_239" type="veh_passenger" depart="2073.25" from="199885792" to="428326182" /><trip id="roi_trip_240" type="veh_passenger" depart="2081.93" from="24160009" to="1205679702#0" /><trip id="roi_trip_241" type="veh_passenger" depart="2090.6" from="535922410" to="24160009" /><trip id="roi_trip_242" type="veh_passenger" depart="2099.28" from="535922410-AddedOnRampEdge" to="24160007#0" /><trip id="roi_trip_243" type="veh_passenger" depart="2107.95" from="24160008" to="428326182" /><trip id="roi_trip_244" type="veh_passenger" depart="2116.63" from="535922409" to="24160011" /><trip id="roi_trip_245" type="veh_passenger" depart="2125.3" from="24160010" to="1205679702#0" /><trip id="roi_trip_246" type="veh_passenger" depart="2133.98" from="535922410" to="431981407" /><trip id="roi_trip_247" type="veh_passenger" depart="2142.65" from="25042886" to="24160008" /><trip id="roi_trip_248" type="veh_passenger" depart="2151.33" from="24160020" to="199885791" /><trip id="roi_trip_249" type="veh_passenger" depart="2160.0" from="1205679702#1" to="1168109380" /><trip id="roi_trip_250" type="veh_passenger" depart="2168.67" from="25042886" to="895708421" /><trip id="roi_trip_251" type="veh_passenger" depart="2177.35" from="535922410-AddedOnRampEdge" to="535922409" /><trip id="roi_trip_252" type="veh_passenger" depart="2186.02" from="24160011" to="-1205679702#0" /><trip id="roi_trip_253" type="veh_passenger" depart="2194.7" from="24160010" to="431981408#0" /><trip id="roi_trip_254" type="veh_passenger" depart="2203.37" from="98246932" to="1163917760" /><trip id="roi_trip_255" type="veh_passenger" depart="2212.05" from="1168109380" to="1168273992-AddedOffRampEdge" /><trip id="roi_trip_256" type="veh_passenger" depart="2220.72" from="24160011" to="431989326" /><trip id="roi_trip_257" type="veh_passenger" depart="2229.4" from="535922410" to="-1205679702#1" /><trip id="roi_trip_258" type="veh_passenger" depart="2238.07" from="-1205679702#0" to="1205679702#1" /><trip id="roi_trip_259" type="veh_passenger" depart="2246.75" from="535922410" to="98246932" /><trip id="roi_trip_260" type="veh_passenger" depart="2255.42" from="428326182" to="431981408#0" /><trip id="roi_trip_261" type="veh_passenger" depart="2264.1" from="24160010" to="24160007#0" /><trip id="roi_trip_262" type="veh_passenger" depart="2272.77" from="98246932" to="895708421" /><trip id="roi_trip_263" type="veh_passenger" depart="2281.45" from="428326182" to="24160007#1" /><trip id="roi_trip_264" type="veh_passenger" depart="2290.12" from="1168273992-AddedOffRampEdge" to="199885792" /><trip id="roi_trip_265" type="veh_passenger" depart="2298.8" from="1205679702#0" to="423997744" /><trip id="roi_trip_266" type="veh_passenger" depart="2307.47" from="199885792" to="24160010" /><trip id="roi_trip_267" type="veh_passenger" depart="2316.14" from="24160010" to="24160007#1" /><trip id="roi_trip_268" type="veh_passenger" depart="2324.82" from="24160007#0" to="431981408#0" /><trip id="roi_trip_269" type="veh_passenger" depart="2333.49" from="-1205679702#1" to="1168273992-AddedOffRampEdge" /><trip id="roi_trip_270" type="veh_passenger" depart="2342.17" from="98246932" to="314066421-AddedOffRampEdge" /><trip id="roi_trip_271" type="veh_passenger" depart="2350.84" from="895708421" to="423997744" /><trip id="roi_trip_272" type="veh_passenger" depart="2359.52" from="431981408#0" to="24160008" /><trip id="roi_trip_273" type="veh_passenger" depart="2368.19" from="98246932" to="199885791" /><trip id="roi_trip_274" type="veh_passenger" depart="2376.87" from="1168283956" to="428326182" /><trip id="roi_trip_275" type="veh_passenger" depart="2385.54" from="431981408#0" to="24160007#0" /><trip id="roi_trip_276" type="veh_passenger" depart="2394.22" from="431981407" to="1205679702#1" /><trip id="roi_trip_277" type="veh_passenger" depart="2402.89" from="24160007#1" to="24160012#1" /><trip id="roi_trip_278" type="veh_passenger" depart="2411.57" from="98246932" to="24160008" /><trip id="roi_trip_279" type="veh_passenger" depart="2420.24" from="24160007#1" to="1205679702#0" /><trip id="roi_trip_280" type="veh_passenger" depart="2428.92" from="1163917760" to="24160011" /><trip id="roi_trip_281" type="veh_passenger" depart="2437.59" from="98246932" to="24160009" /><trip id="roi_trip_282" type="veh_passenger" depart="2446.27" from="535922410" to="535922410-AddedOnRampEdge" /><trip id="roi_trip_283" type="veh_passenger" depart="2454.94" from="1168109380" to="895708421" /><trip id="roi_trip_284" type="veh_passenger" depart="2463.61" from="314066421-AddedOffRampEdge" to="98246932" /><trip id="roi_trip_285" type="veh_passenger" depart="2472.29" from="535922409" to="895708421" /><trip id="roi_trip_286" type="veh_passenger" depart="2480.96" from="431981407" to="199885791" /><trip id="roi_trip_287" type="veh_passenger" depart="2489.64" from="535922409" to="1163917760" /><trip id="roi_trip_288" type="veh_passenger" depart="2498.31" from="428326182" to="431981408#0" /><trip id="roi_trip_289" type="veh_passenger" depart="2506.99" from="535922409" to="199885791" /><trip id="roi_trip_290" type="veh_passenger" depart="2515.66" from="24160010" to="1168283956" /><trip id="roi_trip_291" type="veh_passenger" depart="2524.34" from="1168283956" to="1168273992-AddedOffRampEdge" /><trip id="roi_trip_292" type="veh_passenger" depart="2533.01" from="1163917760" to="535922409" /><trip id="roi_trip_293" type="veh_passenger" depart="2541.69" from="535922410" to="895708421" /><trip id="roi_trip_294" type="veh_passenger" depart="2550.36" from="24160010" to="535922410-AddedOnRampEdge" /><trip id="roi_trip_295" type="veh_passenger" depart="2559.04" from="25042886" to="24160008" /><trip id="roi_trip_296" type="veh_passenger" depart="2567.71" from="431981407" to="1168109380" /><trip id="roi_trip_297" type="veh_passenger" depart="2576.39" from="1168109380" to="199885792" /><trip id="roi_trip_298" type="veh_passenger" depart="2585.06" from="431981408#0" to="24160010" /><trip id="roi_trip_299" type="veh_passenger" depart="2593.73" from="895708421" to="428326182" /><trip id="roi_trip_300" type="veh_passenger" depart="2602.41" from="24160010" to="428326182" /><trip id="roi_trip_301" type="veh_passenger" depart="2611.08" from="535922410" to="-12