<?xml version="1.0" ?>
<trips>
  <trip id="roi_trip_0" type="veh_passenger" depart="0.0" from="24160007#1" to="535922410"/>
  <trip id="roi_trip_1" type="veh_passenger" depart="43.37" from="24160012#1" to="1168109380"/>
  <trip id="roi_trip_2" type="veh_passenger" depart="86.75" from="98246932" to="24160007#0"/>
  <trip id="roi_trip_3" type="veh_passenger" depart="130.12" from="431981407" to="98246932"/>
  <trip id="roi_trip_4" type="veh_passenger" depart="173.49" from="-1205679702#0" to="24160010"/>
  <trip id="roi_trip_5" type="veh_passenger" depart="216.87" from="199885791" to="1205679702#1"/>
  <trip id="roi_trip_6" type="veh_passenger" depart="260.24" from="24160020" to="-1205679702#1"/>
  <trip id="roi_trip_7" type="veh_passenger" depart="303.61" from="1168283956" to="24160020"/>
  <trip id="roi_trip_8" type="veh_passenger" depart="346.99" from="535922410" to="-1205679702#0"/>
  <trip id="roi_trip_9" type="veh_passenger" depart="390.36" from="24160007#1" to="24160007#2"/>
  <trip id="roi_trip_10" type="veh_passenger" depart="433.73" from="431981408#0" to="1205679702#0"/>
  <trip id="roi_trip_11" type="veh_passenger" depart="477.11" from="98246932" to="-1205679702#1"/>
  <trip id="roi_trip_12" type="veh_passenger" depart="520.48" from="423997744" to="24160007#0"/>
  <trip id="roi_trip_13" type="veh_passenger" depart="563.86" from="1205679702#1" to="24160020"/>
  <trip id="roi_trip_14" type="veh_passenger" depart="607.23" from="24160009" to="24160007#1"/>
  <trip id="roi_trip_15" type="veh_passenger" depart="650.6" from="1205679702#0" to="24160008"/>
  <trip id="roi_trip_16" type="veh_passenger" depart="693.98" from="24160020" to="24160007#0"/>
  <trip id="roi_trip_17" type="veh_passenger" depart="737.35" from="25042886" to="1168283956"/>
  <trip id="roi_trip_18" type="veh_passenger" depart="780.72" from="535922410" to="1168109380"/>
  <trip id="roi_trip_19" type="veh_passenger" depart="824.1" from="199885792" to="423997744"/>
  <trip id="roi_trip_20" type="veh_passenger" depart="867.47" from="24160007#0" to="431981408#0"/>
  <trip id="roi_trip_21" type="veh_passenger" depart="910.84" from="24160020" to="535922409"/>
  <trip id="roi_trip_22" type="veh_passenger" depart="954.22" from="535922409" to="1163917760"/>
  <trip id="roi_trip_23" type="veh_passenger" depart="997.59" from="1168283956" to="24160007#0"/>
  <trip id="roi_trip_24" type="veh_passenger" depart="1040.96" from="25042886" to="-1205679702#1"/>
  <trip id="roi_trip_25" type="veh_passenger" depart="1084.34" from="199885791" to="431981407"/>
  <trip id="roi_trip_26" type="veh_passenger" depart="1127.71" from="431989326" to="24160020"/>
  <trip id="roi_trip_27" type="veh_passenger" depart="1171.08" from="1168273992-AddedOffRampEdge" to="24160009"/>
  <trip id="roi_trip_28" type="veh_passenger" depart="1214.46" from="-1205679702#1" to="428326182"/>
  <trip id="roi_trip_29" type="veh_passenger" depart="1257.83" from="24160007#2" to="24160010"/>
  <trip id="roi_trip_30" type="veh_passenger" depart="1301.2" from="1163917760" to="1168283956"/>
  <trip id="roi_trip_31" type="veh_passenger" depart="1344.58" from="1168273992-AddedOffRampEdge" to="1168109380"/>
  <trip id="roi_trip_32" type="veh_passenger" depart="1387.95" from="24160007#1" to="535922410"/>
  <trip id="roi_trip_33" type="veh_passenger" depart="1431.33" from="199885791" to="1205679702#1"/>
  <trip id="roi_trip_34" type="veh_passenger" depart="1474.7" from="24160020" to="1168273992-AddedOffRampEdge"/>
  <trip id="roi_trip_35" type="veh_passenger" depart="1518.07" from="1168109380" to="1205679702#0"/>
  <trip id="roi_trip_36" type="veh_passenger" depart="1561.45" from="24160010" to="895708421"/>
  <trip id="roi_trip_37" type="veh_passenger" depart="1604.82" from="199885791" to="1168283956"/>
  <trip id="roi_trip_38" type="veh_passenger" depart="1648.19" from="314066421-AddedOffRampEdge" to="24160007#0"/>
  <trip id="roi_trip_39" type="veh_passenger" depart="1691.57" from="535922410" to="24160020"/>
  <trip id="roi_trip_40" type="veh_passenger" depart="1734.94" from="1168273992-AddedOffRampEdge" to="535922410-AddedOnRampEdge"/>
  <trip id="roi_trip_41" type="veh_passenger" depart="1778.31" from="423997744" to="1163917760"/>
  <trip id="roi_trip_42" type="veh_passenger" depart="1821.69" from="-1205679702#1" to="199885792"/>
  <trip id="roi_trip_43" type="veh_passenger" depart="1865.06" from="431981407" to="535922410-AddedOnRampEdge"/>
  <trip id="roi_trip_44" type="veh_passenger" depart="1908.43" from="314066421-AddedOffRampEdge" to="535922410"/>
  <trip id="roi_trip_45" type="veh_passenger" depart="1951.81" from="24160010" to="431989326"/>
  <trip id="roi_trip_46" type="veh_passenger" depart="1995.18" from="199885792" to="428326182"/>
  <trip id="roi_trip_47" type="veh_passenger" depart="2038.55" from="535922410-AddedOnRampEdge" to="199885792"/>
  <trip id="roi_trip_48" type="veh_passenger" depart="2081.93" from="428326182" to="431989326"/>
  <trip id="roi_trip_49" type="veh_passenger" depart="2125.3" from="423997744" to="428326182"/>
  <trip id="roi_trip_50" type="veh_passenger" depart="2168.67" from="24160009" to="423997744"/>
  <trip id="roi_trip_51" type="veh_passenger" depart="2212.05" from="24160009" to="431981408#0"/>
  <trip id="roi_trip_52" type="veh_passenger" depart="2255.42" from="895708421" to="24160008"/>
  <trip id="roi_trip_53" type="veh_passenger" depart="2298.8" from="24160007#0" to="24160020"/>
  <trip id="roi_trip_54" type="veh_passenger" depart="2342.17" from="98246932" to="535922410-AddedOnRampEdge"/>
  <trip id="roi_trip_55" type="veh_passenger" depart="2385.54" from="-1205679702#0" to="423997744"/>
  <trip id="roi_trip_56" type="veh_passenger" depart="2428.92" from="24160010" to="1163917760"/>
  <trip id="roi_trip_57" type="veh_passenger" depart="2472.29" from="24160009" to="1163917760"/>
  <trip id="roi_trip_58" type="veh_passenger" depart="2515.66" from="24160012#1" to="98246932"/>
  <trip id="roi_trip_59" type="veh_passenger" depart="2559.04" from="431981407" to="24160007#2"/>
  <trip id="roi_trip_60" type="veh_passenger" depart="2602.41" from="535922410-AddedOnRampEdge" to="24160007#2"/>
  <trip id="roi_trip_61" type="veh_passenger" depart="2645.78" from="24160007#2" to="895708421"/>
  <trip id="roi_trip_62" type="veh_passenger" depart="2689.16" from="24160010" to="199885792"/>
  <trip id="roi_trip_63" type="veh_passenger" depart="2732.53" from="25042886" to="1168283956"/>
  <trip id="roi_trip_64" type="veh_passenger" depart="2775.9" from="24160011" to="1168109380"/>
  <trip id="roi_trip_65" type="veh_passenger" depart="2819.28" from="431981407" to="-1205679702#1"/>
  <trip id="roi_trip_66" type="veh_passenger" depart="2862.65" from="24160007#1" to="24160012#1"/>
  <trip id="roi_trip_67" type="veh_passenger" depart="2906.02" from="428326182" to="24160007#0"/>
  <trip id="roi_trip_68" type="veh_passenger" depart="2949.4" from="199885791" to="24160012#1"/>
  <trip id="roi_trip_69" type="veh_passenger" depart="2992.77" from="24160007#1" to="535922409"/>
  <trip id="roi_trip_70" type="veh_passenger" depart="3036.14" from="1205679702#1" to="431981407"/>
  <trip id="roi_trip_71" type="veh_passenger" depart="3079.52" from="24160012#1" to="24160007#0"/>
  <trip id="roi_trip_72" type="veh_passenger" depart="3122.89" from="24160009" to="25042886"/>
  <trip id="roi_trip_73" type="veh_passenger" depart="3166.27" from="24160007#0" to="1168109380"/>
  <trip id="roi_trip_74" type="veh_passenger" depart="3209.64" from="24160007#1" to="535922410-AddedOnRampEdge"/>
  <trip id="roi_trip_75" type="veh_passenger" depart="3253.01" from="24160011" to="-1205679702#0"/>
  <trip id="roi_trip_76" type="veh_passenger" depart="3296.39" from="895708421" to="24160011"/>
  <trip id="roi_trip_77" type="veh_passenger" depart="3339.76" from="314066421-AddedOffRampEdge" to="25042886"/>
  <trip id="roi_trip_78" type="veh_passenger" depart="3383.13" from="431989326" to="431981407"/>
  <trip id="roi_trip_79" type="veh_passenger" depart="3426.51" from="24160007#2" to="-1205679702#0"/>
  <trip id="roi_trip_80" type="veh_passenger" depart="3469.88" from="1168283956" to="314066421-AddedOffRampEdge"/>
  <trip id="roi_trip_81" type="veh_passenger" depart="3513.25" from="24160008" to="423997744"/>
  <trip id="roi_trip_82" type="veh_passenger" depart="3556.63" from="24160011" to="199885791"/>
</trips>
