<?xml version="1.0" encoding="UTF-8"?>

<!-- generated on 2025-05-14 00:43:30.759403 by randomTrips.py 9a83456
<configuration>
    <net-file value="D:\TrAD-Quito\sumo\input\simon_bolivar.net.xml"/>
    <output-trip-file value="D:\TrAD-Quito\sumo\input\trips_type2_2500.trips.xml"/>
    <fringe-factor value="3"/>
    <validate value="True"/>
    <insertion-density value="56.0"/>
    <binomial value="100"/>
</configuration>
-->

<!-- generated on 2025-05-14 00:43:12 by Eclipse SUMO duarouter Version 1.18.0
<configuration xmlns:xsi="http://www.w3.org/2001/XMLSchema-instance" xsi:noNamespaceSchemaLocation="http://sumo.dlr.de/xsd/duarouterConfiguration.xsd">

    <input>
        <net-file value="D:\TrAD-Quito\sumo\input\simon_bolivar.net.xml"/>
        <route-files value="D:\TrAD-Quito\sumo\input\trips_type2_2500.trips.xml"/>
    </input>

    <output>
        <output-file value="D:\TrAD-Quito\sumo\input\trips_type2_2500.trips.xml.tmp"/>
        <alternatives-output value="NUL"/>
        <write-trips value="true"/>
    </output>

    <time>
        <begin value="0.0"/>
        <end value="3600.0"/>
    </time>

    <report>
        <no-warnings value="true"/>
        <ignore-errors value="true"/>
        <no-step-log value="true"/>
    </report>

</configuration>
-->

<routes xmlns:xsi="http://www.w3.org/2001/XMLSchema-instance" xsi:noNamespaceSchemaLocation="http://sumo.dlr.de/xsd/routes_file.xsd">
    <trip id="0" depart="0.00" from="-25046393#0" to="-25054221#0"/>
    <trip id="1" depart="0.00" from="-24791355#1" to="1205693236"/>
    <trip id="2" depart="0.00" from="-24783924#4" to="24791339#1"/>
    <trip id="3" depart="0.00" from="293256120#3" to="25042922#3"/>
    <trip id="4" depart="0.00" from="-25042891#3" to="-334561890"/>
    <trip id="5" depart="0.00" from="-25054593" to="-293255743"/>
    <trip id="7" depart="0.00" from="25045239#0" to="25042900#3"/>
    <trip id="8" depart="1.00" from="-25111439#1" to="-1168287297#3"/>
    <trip id="9" depart="1.00" from="999672221" to="376543464#2"/>
    <trip id="10" depart="2.00" from="31895149#0" to="-372239271"/>
    <trip id="11" depart="2.00" from="25054599" to="24735612#3"/>
    <trip id="12" depart="2.00" from="-1205679702#0" to="431994307"/>
    <trip id="13" depart="2.00" from="25046423" to="-431827299#0"/>
    <trip id="15" depart="3.00" from="535554959#1" to="24405487#2"/>
    <trip id="16" depart="3.00" from="-25046433#1" to="1094268117"/>
    <trip id="17" depart="3.00" from="-25042920#2" to="1201838049"/>
    <trip id="18" depart="3.00" from="25054217#0" to="25054595#2"/>
    <trip id="19" depart="3.00" from="-25043042" to="420905011#0"/>
    <trip id="20" depart="4.00" from="-302965728#4" to="25054216#1"/>
    <trip id="21" depart="4.00" from="-276636146#5" to="25042896#3"/>
    <trip id="24" depart="4.00" from="-376543473" to="-25046813#0"/>
    <trip id="25" depart="4.00" from="1205662259#4" to="999672222"/>
    <trip id="26" depart="4.00" from="-24683611#1" to="-24735603#0"/>
    <trip id="27" depart="4.00" from="-25054587#1" to="25042892"/>
    <trip id="28" depart="5.00" from="376543464#2" to="-25044576#0"/>
    <trip id="30" depart="5.00" from="1203849760" to="-302965727#1"/>
    <trip id="31" depart="5.00" from="652044149" to="1201877287"/>
    <trip id="32" depart="5.00" from="-24683560#3" to="24683514#0"/>
    <trip id="34" depart="6.00" from="-432777385#1" to="-420905006#1"/>
    <trip id="35" depart="6.00" from="25054228#3" to="1201612998"/>
    <trip id="36" depart="7.00" from="25054138#2" to="25043182#0"/>
    <trip id="37" depart="7.00" from="1094251933" to="24683560#6"/>
    <trip id="38" depart="7.00" from="-1205662255" to="24735606"/>
    <trip id="39" depart="7.00" from="293255543" to="-35631491#0"/>
    <trip id="40" depart="8.00" from="293256038" to="432775731#1"/>
    <trip id="41" depart="8.00" from="24683550#1" to="1205662259#3"/>
    <trip id="42" depart="8.00" from="1205662257#1" to="1168542191#0"/>
    <trip id="43" depart="8.00" from="431827307#1" to="24405521#2"/>
    <trip id="44" depart="9.00" from="-376539201" to="1168287297#2"/>
    <trip id="45" depart="9.00" from="27347564#3" to="-25054870#1"/>
    <trip id="46" depart="9.00" from="376543476#3" to="-24791345#1"/>
    <trip id="47" depart="9.00" from="-1094298143#0" to="276602814#0"/>
    <trip id="48" depart="9.00" from="25046813#1" to="199881960#1"/>
    <trip id="49" depart="9.00" from="25111487#0" to="431775783"/>
    <trip id="50" depart="10.00" from="535572605#0" to="372239269#0"/>
    <trip id="51" depart="10.00" from="424685850#1" to="24683519#1"/>
    <trip id="52" depart="10.00" from="25054141" to="-25054138#2"/>
    <trip id="53" depart="10.00" from="-24699025#3" to="24699045#3"/>
    <trip id="54" depart="10.00" from="-428334464" to="24699025#10"/>
    <trip id="55" depart="10.00" from="-25054218" to="-25046811#1"/>
    <trip id="56" depart="10.00" from="25054142#2" to="-25042926"/>
    <trip id="57" depart="10.00" from="-1168283949" to="535566666#1"/>
    <trip id="58" depart="10.00" from="-25111440#1" to="293255911#2"/>
    <trip id="59" depart="11.00" from="1094268116" to="-376543464#0"/>
    <trip id="60" depart="12.00" from="-276638492#0" to="25054588#1"/>
    <trip id="61" depart="12.00" from="-1201877667" to="1205679706"/>
    <trip id="62" depart="12.00" from="535910621#1" to="376543469#2"/>
    <trip id="63" depart="12.00" from="-1205693235" to="-276636146#1"/>
    <trip id="64" depart="12.00" from="-432770520#4" to="276636146#6"/>
    <trip id="65" depart="12.00" from="1168283948" to="-25054602#2"/>
    <trip id="66" depart="12.00" from="276623569" to="-432768291#0"/>
    <trip id="67" depart="13.00" from="1211499993" to="31895149#1"/>
    <trip id="68" depart="13.00" from="-24783924#6" to="-1206018453"/>
    <trip id="70" depart="13.00" from="-1205439393" to="25111440#1"/>
    <trip id="71" depart="14.00" from="192145205" to="-637275761#1"/>
    <trip id="72" depart="14.00" from="-24405524" to="-25035451#4"/>
    <trip id="73" depart="14.00" from="-1201612998" to="24783924#11"/>
    <trip id="74" depart="15.00" from="668297058" to="1205693236"/>
    <trip id="76" depart="15.00" from="-24683539" to="-431827302#0"/>
    <trip id="77" depart="15.00" from="-895216896#0" to="877695144"/>
    <trip id="79" depart="15.00" from="-25054590#2" to="-25035451#0"/>
    <trip id="80" depart="16.00" from="-432248099#2" to="25044930#2"/>
    <trip id="82" depart="16.00" from="24405487#0" to="-24699027#5"/>
    <trip id="83" depart="17.00" from="24735616#3" to="25042915#4"/>
    <trip id="84" depart="17.00" from="-293255911#4" to="-24405506#2"/>
    <trip id="85" depart="17.00" from="-431981403#0" to="25054592#1"/>
    <trip id="86" depart="17.00" from="-1168305905#1" to="-372239268"/>
    <trip id="87" depart="18.00" from="-24791339#1" to="-24699017#1"/>
    <trip id="88" depart="18.00" from="24683533#0" to="25043045#0"/>
    <trip id="89" depart="18.00" from="25046811#0" to="-897097401#0"/>
    <trip id="90" depart="18.00" from="1094261603#0" to="-334561890"/>
    <trip id="91" depart="18.00" from="626957569#1" to="854227944"/>
    <trip id="92" depart="19.00" from="376539776" to="668297273"/>
    <trip id="93" depart="19.00" from="1094261605" to="-668297058"/>
    <trip id="94" depart="19.00" from="179181038#3" to="-1094268118#1"/>
    <trip id="95" depart="19.00" from="302965728#3" to="25042889#5"/>
    <trip id="96" depart="19.00" from="-1094261603#2" to="-25042919#1"/>
    <trip id="97" depart="19.00" from="-24791344#2" to="431827297#2"/>
    <trip id="98" depart="19.00" from="-1205679701" to="535571842"/>
    <trip id="99" depart="19.00" from="535570456#1" to="-376543469#2"/>
    <trip id="100" depart="19.00" from="-507058716" to="376543469#0"/>
    <trip id="101" depart="19.00" from="-25046387" to="98246944#13-AddedOffRampEdge"/>
    <trip id="102" depart="20.00" from="-25054582#0" to="-432777386#6"/>
    <trip id="103" depart="20.00" from="-31896236#1" to="-24683554#0"/>
    <trip id="104" depart="21.00" from="948224713" to="25042893#0"/>
    <trip id="105" depart="21.00" from="-25044575" to="1216978709#0"/>
    <trip id="106" depart="21.00" from="-24405490#1" to="107938350#1"/>
    <trip id="107" depart="21.00" from="24683610#1" to="-25046391#1"/>
    <trip id="108" depart="22.00" from="-334561591#4" to="-1094261603#3"/>
    <trip id="109" depart="22.00" from="25054588#1" to="-337623511#0"/>
    <trip id="110" depart="22.00" from="25044936" to="24405502#2"/>
    <trip id="111" depart="22.00" from="25054870#2" to="25046407#2"/>
    <trip id="112" depart="23.00" from="-229472853#1" to="25111487#1"/>
    <trip id="113" depart="23.00" from="854227946#3" to="-25046407#1"/>
    <trip id="114" depart="23.00" from="-895216931" to="-24735616#2"/>
    <trip id="115" depart="23.00" from="25042914#1" to="334559786"/>
    <trip id="116" depart="23.00" from="24735611#0" to="1168283948"/>
    <trip id="117" depart="23.00" from="432768291#3" to="754427034#1"/>
    <trip id="118" depart="24.00" from="-1205439393" to="-293255543"/>
    <trip id="119" depart="24.00" from="-1205118877" to="27408621#1"/>
    <trip id="120" depart="24.00" from="293256863" to="-293256826#0"/>
    <trip id="121" depart="24.00" from="420905045#0" to="-25054871#0"/>
    <trip id="122" depart="24.00" from="-24791335#1" to="24683515#1"/>
    <trip id="123" depart="25.00" from="-431981406" to="-25054591#0"/>
    <trip id="124" depart="25.00" from="24783924#4" to="420905045#0"/>
    <trip id="126" depart="25.00" from="-431827304#5" to="1168541556"/>
    <trip id="127" depart="25.00" from="337623511#0" to="895462358#0"/>
    <trip id="128" depart="25.00" from="-1205367604" to="432777381#1"/>
    <trip id="130" depart="25.00" from="25042889#8" to="-25042920#3"/>
    <trip id="131" depart="25.00" from="24699022#0" to="-25054877"/>
    <trip id="132" depart="26.00" from="999609879" to="-25054146#1"/>
    <trip id="133" depart="26.00" from="25042920#2" to="668298285#1"/>
    <trip id="135" depart="26.00" from="24405520#0" to="534900637#0"/>
    <trip id="136" depart="26.00" from="24683538#0" to="535566666#1"/>
    <trip id="137" depart="27.00" from="-420904972#1" to="25046407#2"/>
    <trip id="138" depart="27.00" from="652088615#1-AddedOffRampEdge" to="-25042908#0"/>
    <trip id="139" depart="27.00" from="24405496" to="376543472#0"/>
    <trip id="140" depart="27.00" from="-24699038" to="-337312509#0"/>
    <trip id="141" depart="28.00" from="-25046394#0" to="-24791344#0"/>
    <trip id="143" depart="28.00" from="31895149#1" to="-376539197"/>
    <trip id="144" depart="28.00" from="-24735612#2" to="376539777"/>
    <trip id="146" depart="29.00" from="25111445#1" to="25054590#2"/>
    <trip id="147" depart="29.00" from="432777386#3" to="24791336#3"/>
    <trip id="148" depart="29.00" from="-25043045#1" to="302965727#11"/>
    <trip id="149" depart="29.00" from="25043787" to="24683535#1"/>
    <trip id="150" depart="29.00" from="376543469#0" to="-24783924#7"/>
    <trip id="151" depart="30.00" from="-25046388" to="25054228#4"/>
    <trip id="152" depart="30.00" from="-24783924#6" to="-668297058"/>
    <trip id="153" depart="30.00" from="-25054870#2" to="376539778#1"/>
    <trip id="154" depart="30.00" from="431775780" to="-276636146#0"/>
    <trip id="155" depart="30.00" from="999609876" to="24791355#1"/>
    <trip id="156" depart="30.00" from="25042905#2" to="107938350#4"/>
    <trip id="157" depart="30.00" from="107938391#0" to="-25046423"/>
    <trip id="158" depart="30.00" from="24791575#1" to="432777386#4"/>
    <trip id="159" depart="31.00" from="-25046813#2" to="293255911#3"/>
    <trip id="160" depart="31.00" from="376543465#2" to="24791575#3"/>
    <trip id="161" depart="31.00" from="25042891#1" to="376543469#0"/>
    <trip id="162" depart="31.00" from="-25044580" to="-376543469#2"/>
    <trip id="164" depart="31.00" from="-25035451#3" to="24783924#7"/>
    <trip id="165" depart="31.00" from="-1380250678" to="24699027#8"/>
    <trip id="166" depart="31.00" from="-25035451#4" to="1168541559"/>
    <trip id="167" depart="32.00" from="-24699029#3" to="-24791336#1"/>
    <trip id="168" depart="32.00" from="538972998#1" to="376543469#1"/>
    <trip id="169" depart="32.00" from="-24683551#1" to="25042887#0"/>
    <trip id="170" depart="32.00" from="305589151#0" to="-24699023"/>
    <trip id="172" depart="33.00" from="535910625#0" to="24699041#5"/>
    <trip id="173" depart="33.00" from="24791354#0" to="1168305904"/>
    <trip id="174" depart="33.00" from="432768291#4" to="-25045239#0"/>
    <trip id="175" depart="33.00" from="-1205367605" to="25042887#0"/>
    <trip id="176" depart="34.00" from="292747017#0" to="24405519#3"/>
    <trip id="177" depart="34.00" from="25035451#2" to="24160007#1"/>
    <trip id="178" depart="34.00" from="24683527#4" to="24160013"/>
    <trip id="179" depart="34.00" from="-25042922#1" to="-25054218"/>
    <trip id="180" depart="35.00" from="1094268115#1" to="-1201829326#1"/>
    <trip id="181" depart="35.00" from="-24791340" to="432777387"/>
    <trip id="182" depart="35.00" from="895708421" to="-421121876#0"/>
    <trip id="183" depart="35.00" from="-1190782927" to="24683535#6"/>
    <trip id="184" depart="35.00" from="24405499" to="-234800473#2"/>
    <trip id="185" depart="35.00" from="25044936" to="24791355#1"/>
    <trip id="187" depart="36.00" from="1190782923" to="-25054585#3"/>
    <trip id="188" depart="36.00" from="24735618#0" to="25042909"/>
    <trip id="189" depart="36.00" from="-1380250679#1" to="-24791345#3"/>
    <trip id="191" depart="37.00" from="24683534#0" to="1380250677"/>
    <trip id="192" depart="37.00" from="-25042914#1" to="-107938350#1"/>
    <trip id="193" depart="37.00" from="-24405510" to="-24405507#5"/>
    <trip id="194" depart="37.00" from="357850162" to="-25111441#1"/>
    <trip id="196" depart="38.00" from="293255555" to="1201877667"/>
    <trip id="197" depart="38.00" from="-24791344#2" to="24683546#1"/>
    <trip id="198" depart="38.00" from="-24405520#3" to="431775783-AddedOnRampEdge"/>
    <trip id="199" depart="39.00" from="25046398#0" to="24791358"/>
    <trip id="200" depart="39.00" from="-429529117#1" to="25054585#4"/>
    <trip id="202" depart="39.00" from="314066419" to="420905006#1"/>
    <trip id="203" depart="39.00" from="534900637#0" to="668298285#1"/>
    <trip id="204" depart="39.00" from="-432777383" to="-337623511#1"/>
    <trip id="205" depart="39.00" from="-376542025#0" to="-999609883#1"/>
    <trip id="206" depart="39.00" from="-1201838046" to="24160007#1"/>
    <trip id="207" depart="39.00" from="25054877" to="-24405519#0"/>
    <trip id="209" depart="40.00" from="626957570#0" to="179181038#6"/>
    <trip id="210" depart="40.00" from="-1190782926" to="25111486"/>
    <trip id="212" depart="40.00" from="376543474#3" to="25054870#2"/>
    <trip id="213" depart="41.00" from="-1205662257#4" to="-376539200"/>
    <trip id="214" depart="41.00" from="31896632" to="25042911#2"/>
    <trip id="215" depart="41.00" from="-334549232" to="-24791335#1"/>
    <trip id="216" depart="42.00" from="25054599" to="-432768292#4"/>
    <trip id="217" depart="42.00" from="25111440#1" to="-854227946#4"/>
    <trip id="218" depart="42.00" from="1205662259#6" to="-24791356"/>
    <trip id="219" depart="42.00" from="25046412#1" to="-894591201"/>
    <trip id="220" depart="42.00" from="-431775781" to="-24683534#1"/>
    <trip id="221" depart="42.00" from="-25054223#3" to="897097402#1"/>
    <trip id="222" depart="42.00" from="31895154" to="-25046398#0"/>
    <trip id="223" depart="42.00" from="750058067#2" to="535574528"/>
    <trip id="224" depart="42.00" from="25042910#0" to="-24699031#3"/>
    <trip id="225" depart="42.00" from="-24791342#3" to="24405487#0"/>
    <trip id="226" depart="42.00" from="24405514#0" to="24791575#3"/>
    <trip id="227" depart="42.00" from="-24699038" to="-31896253"/>
    <trip id="228" depart="42.00" from="24735618#1" to="-1094251934"/>
    <trip id="230" depart="42.00" from="-25042923#1" to="199885791"/>
    <trip id="231" depart="43.00" from="199568036#0" to="-305589151#1"/>
    <trip id="232" depart="43.00" from="25054592#1" to="-1094316873"/>
    <trip id="233" depart="43.00" from="25046420" to="-854227939"/>
    <trip id="235" depart="44.00" from="-25046814#1" to="-895216933#0"/>
    <trip id="236" depart="44.00" from="1168287296#1" to="-24791339#1"/>
    <trip id="237" depart="44.00" from="431827306#0" to="-25054596#0"/>
    <trip id="238" depart="44.00" from="-24683557#0" to="24791342#3"/>
    <trip id="239" depart="44.00" from="376543467" to="25035452#4"/>
    <trip id="240" depart="44.00" from="-432768292#1" to="-25043046#2"/>
    <trip id="242" depart="45.00" from="-24791335#3" to="-31895154"/>
    <trip id="243" depart="45.00" from="25042893#1" to="-432248097#1"/>
    <trip id="244" depart="45.00" from="-24699045#4" to="-429690524#1"/>
    <trip id="246" depart="45.00" from="-432248099#4" to="1205662259#4"/>
    <trip id="247" depart="45.00" from="-895462373" to="1205679701"/>
    <trip id="248" depart="46.00" from="535910625#0" to="25042907#1"/>
    <trip id="249" depart="46.00" from="1168305905#1" to="24791350#4"/>
    <trip id="250" depart="46.00" from="24699025#9" to="1223982209"/>
    <trip id="251" depart="46.00" from="-432770910#0" to="-25043182#0"/>
    <trip id="252" depart="46.00" from="-895216897" to="-432770523"/>
    <trip id="253" depart="47.00" from="-24683554#0" to="-24791355#0"/>
    <trip id="254" depart="47.00" from="98246921" to="-909187260"/>
    <trip id="255" depart="47.00" from="25042923#0" to="334561591#7"/>
    <trip id="256" depart="47.00" from="25045239#1" to="1205118878"/>
    <trip id="257" depart="48.00" from="-293255911#0" to="25111440#1"/>
    <trip id="258" depart="48.00" from="534900637#3" to="25054138#5"/>
    <trip id="259" depart="48.00" from="98246944#19-AddedOffRampEdge" to="302965728#2"/>
    <trip id="260" depart="48.00" from="-24405506#1" to="-25042922#1"/>
    <trip id="261" depart="48.00" from="535566686" to="1168541553"/>
    <trip id="263" depart="48.00" from="-199881967#0" to="-24699025#4"/>
    <trip id="264" depart="49.00" from="-1380250680" to="637275764#1"/>
    <trip id="265" depart="49.00" from="805508870#1" to="334560315#1"/>
    <trip id="268" depart="50.00" from="-24405514#2" to="302965727#6"/>
    <trip id="269" depart="50.00" from="-24683546#1" to="24791343"/>
    <trip id="270" depart="50.00" from="25042921#1" to="-24735612#2"/>
    <trip id="271" depart="50.00" from="-25054228#4" to="276636146#6"/>
    <trip id="272" depart="50.00" from="-229472855#0" to="420904972#3"/>
    <trip id="273" depart="50.00" from="-948224714" to="-1094251931"/>
    <trip id="277" depart="50.00" from="25046811#0" to="535571842"/>
    <trip id="278" depart="51.00" from="895462378#1" to="-1205679704"/>
    <trip id="279" depart="51.00" from="1201829325" to="1201886220"/>
    <trip id="281" depart="51.00" from="-679902284#1" to="25054596#0"/>
    <trip id="282" depart="51.00" from="-432770531#3" to="-293255911#2"/>
    <trip id="283" depart="51.00" from="668297058" to="25042889#7"/>
    <trip id="284" depart="52.00" from="-31895149#1" to="1168542192#1"/>
    <trip id="285" depart="52.00" from="-25054595#3" to="-24735603#0"/>
    <trip id="286" depart="52.00" from="-25054595#4" to="-432248099#6"/>
    <trip id="287" depart="53.00" from="25046431" to="895216895"/>
    <trip id="290" depart="53.00" from="334561591#4" to="376542025#1"/>
    <trip id="291" depart="53.00" from="-107938350#5" to="-293255543"/>
    <trip id="292" depart="54.00" from="1168287297#1" to="-668297058"/>
    <trip id="293" depart="54.00" from="314066417" to="-25054219#2"/>
    <trip id="294" depart="54.00" from="-24405501#1" to="276636146#3"/>
    <trip id="295" depart="55.00" from="-24791354#0" to="-25044937"/>
    <trip id="296" depart="55.00" from="-25111445#4" to="-24699045#0"/>
    <trip id="297" depart="55.00" from="-1205662255" to="25042894"/>
    <trip id="298" depart="56.00" from="-432777383" to="507058717#1"/>
    <trip id="300" depart="56.00" from="-1201612997" to="376543465#1"/>
    <trip id="301" depart="56.00" from="431994307" to="-432248097#0"/>
    <trip id="302" depart="56.00" from="-25111441#2" to="1168544743#1"/>
    <trip id="303" depart="56.00" from="999609879" to="-897097401#0"/>
    <trip id="304" depart="56.00" from="25042923#0" to="429529117#1"/>
    <trip id="305" depart="57.00" from="-24699026" to="-24783924#4"/>
    <trip id="307" depart="57.00" from="894591163#2" to="24699029#0"/>
    <trip id="308" depart="58.00" from="421121961" to="357850163#1"/>
    <trip id="309" depart="58.00" from="-1201844353" to="24783924#11"/>
    <trip id="310" depart="59.00" from="-24683535#3" to="-421121863#0"/>
    <trip id="312" depart="59.00" from="-24683524#1" to="431827302#0"/>
    <trip id="313" depart="59.00" from="-24683560#1" to="-25054587#0"/>
    <trip id="314" depart="59.00" from="-25044577" to="25043182#2"/>
    <trip id="315" depart="59.00" from="-334559786" to="25044574#0"/>
    <trip id="316" depart="59.00" from="25042889#2" to="25042900#1"/>
    <trip id="317" depart="60.00" from="894591201" to="24791345#3"/>
    <trip id="319" depart="60.00" from="-1205662257#4" to="750058067#3"/>
    <trip id="320" depart="60.00" from="-293255743" to="1190782921"/>
    <trip id="321" depart="60.00" from="-1205679705" to="-1211499993"/>
    <trip id="322" depart="60.00" from="-24405511#1" to="-25042919#2"/>
    <trip id="323" depart="61.00" from="-24405506#2" to="-1094541188#0"/>
    <trip id="324" depart="61.00" from="-24699031#3" to="-25035451#2"/>
    <trip id="325" depart="61.00" from="-1094251931" to="24735604#1"/>
    <trip id="326" depart="61.00" from="-25046434#1" to="-25045236"/>
    <trip id="327" depart="61.00" from="-1100897258" to="431989326"/>
    <trip id="329" depart="61.00" from="431827297#0" to="-293255732"/>
    <trip id="330" depart="62.00" from="-24405492#0" to="24735604#1"/>
    <trip id="331" depart="62.00" from="-24683552" to="-1094261603#4"/>
    <trip id="332" depart="62.00" from="-25046406#0" to="199881963"/>
    <trip id="333" depart="62.00" from="-276626522" to="25046387"/>
    <trip id="334" depart="62.00" from="293255544#0" to="24683611#1"/>
    <trip id="337" depart="63.00" from="432248099#1" to="432768291#4"/>
    <trip id="338" depart="64.00" from="24405492#0" to="-25044934#2"/>
    <trip id="339" depart="64.00" from="27347564#2" to="-25054871#2"/>
    <trip id="340" depart="64.00" from="420905006#0" to="-1168541555#1"/>
    <trip id="341" depart="64.00" from="-1203849764" to="-894591163#2"/>
    <trip id="342" depart="64.00" from="-854227948" to="372239269#0"/>
    <trip id="343" depart="64.00" from="535922410-AddedOnRampEdge" to="1203849759"/>
    <trip id="344" depart="65.00" from="25046433#0" to="24683514#1"/>
    <trip id="345" depart="65.00" from="25042906#6" to="24791336#1"/>
    <trip id="346" depart="65.00" from="-895216916#1" to="432775732#0"/>
    <trip id="347" depart="65.00" from="35631491#1" to="25042887#4"/>
    <trip id="348" depart="65.00" from="-854227943#0" to="637275759"/>
    <trip id="349" depart="65.00" from="-25046412#0" to="535566679#0"/>
    <trip id="350" depart="65.00" from="637275760" to="1094282281"/>
    <trip id="351" depart="66.00" from="-24735616#1" to="-24683527#3"/>
    <trip id="352" depart="66.00" from="25046425" to="895216931"/>
    <trip id="353" depart="66.00" from="-276602814#2" to="276638492#0"/>
    <trip id="354" depart="66.00" from="-25054590#0" to="420905006#0"/>
    <trip id="356" depart="66.00" from="24405520#0" to="25042896#0"/>
    <trip id="357" depart="67.00" from="-24791575#0" to="-107938377#4"/>
    <trip id="358" depart="67.00" from="-24405507#4" to="-334561891#0"/>
    <trip id="359" depart="67.00" from="-1168541559" to="-25046393#1"/>
    <trip id="360" depart="67.00" from="376539197" to="457320396#3"/>
    <trip id="361" depart="67.00" from="25042882#0" to="-758831775#1"/>
    <trip id="364" depart="67.00" from="-24791575#0" to="-25046412#1"/>
    <trip id="365" depart="68.00" from="-24783924#9" to="-25046390#1"/>
    <trip id="366" depart="68.00" from="-25054146#2" to="35631490"/>
    <trip id="367" depart="68.00" from="302965727#3" to="376542025#0"/>
    <trip id="368" depart="68.00" from="258647767#0" to="535566686"/>
    <trip id="369" depart="68.00" from="25042904" to="1205366652"/>
    <trip id="370" depart="69.00" from="-24683548" to="-24405506#2"/>
    <trip id="371" depart="69.00" from="-24405507#2" to="534900637#0"/>
    <trip id="372" depart="69.00" from="-234800473#0" to="-357850162"/>
    <trip id="373" depart="69.00" from="25035452#1" to="-25054140"/>
    <trip id="374" depart="70.00" from="-107938377#4" to="25054596#2"/>
    <trip id="375" depart="70.00" from="535549123#0" to="24699022#2"/>
    <trip id="376" depart="70.00" from="376539776" to="-431775779"/>
    <trip id="377" depart="71.00" from="424685850#1" to="-24405514#1"/>
    <trip id="380" depart="71.00" from="534900635#0" to="-865425327"/>
    <trip id="381" depart="71.00" from="302965728#3" to="24735605"/>
    <trip id="382" depart="71.00" from="25054599" to="24791335#1"/>
    <trip id="383" depart="72.00" from="-1205662257#3" to="25042920#1"/>
    <trip id="384" depart="72.00" from="24405512#1" to="897097402#1"/>
    <trip id="385" depart="72.00" from="24683540#2" to="897097401#1"/>
    <trip id="386" depart="72.00" from="-337312509#1" to="-1219475773"/>
    <trip id="387" depart="73.00" from="-1205118878" to="24160008"/>
    <trip id="388" depart="74.00" from="421121954" to="-25043182#0"/>
    <trip id="389" depart="74.00" from="25046393#1" to="24683538#1"/>
    <trip id="390" depart="74.00" from="895462378#1" to="24791339#2"/>
    <trip id="391" depart="74.00" from="-25042915#2" to="1205366652"/>
    <trip id="392" depart="74.00" from="24405501#0" to="24683535#3"/>
    <trip id="393" depart="74.00" from="199881958" to="24160011"/>
    <trip id="394" depart="75.00" from="895462378#0" to="1205693237"/>
    <trip id="395" depart="75.00" from="-25054217#2" to="668298284"/>
    <trip id="396" depart="75.00" from="24683543#0" to="-24683520"/>
    <trip id="398" depart="76.00" from="1168109380" to="-25035600#0"/>
    <trip id="399" depart="76.00" from="25046391#1" to="894591189"/>
    <trip id="400" depart="76.00" from="-854227944" to="24699045#2"/>
    <trip id="403" depart="77.00" from="-24699018#2" to="1205679701"/>
    <trip id="404" depart="77.00" from="98246944#19-AddedOffRampEdge" to="535910625#0"/>
    <trip id="405" depart="77.00" from="-431827307#0" to="-376539776"/>
    <trip id="406" depart="77.00" from="-1190782925" to="-199881965"/>
    <trip id="407" depart="77.00" from="179181038#4" to="429529116"/>
    <trip id="408" depart="78.00" from="-24735611#2" to="24405506#8"/>
    <trip id="409" depart="78.00" from="24683534#0" to="25042920#3"/>
    <trip id="410" depart="78.00" from="24160011" to="276638492#1"/>
    <trip id="411" depart="78.00" from="-25042911#2" to="-1205662260"/>
    <trip id="412" depart="78.00" from="-302965727#11" to="24699028"/>
    <trip id="413" depart="79.00" from="-24699028" to="-25043046#0"/>
    <trip id="414" depart="79.00" from="334561591#5" to="25054584#0"/>
    <trip id="415" depart="79.00" from="-25043040" to="-24683533#0"/>
    <trip id="418" depart="79.00" from="-432775731#0" to="-24791352#0"/>
    <trip id="419" depart="80.00" from="535922409" to="-24791354#2"/>
    <trip id="420" depart="80.00" from="999609876" to="-1168287295"/>
    <trip id="421" depart="80.00" from="-24683540#1" to="854227944"/>
    <trip id="422" depart="80.00" from="894591132" to="-668297057"/>
    <trip id="423" depart="80.00" from="-372239264#2" to="-24683522"/>
    <trip id="424" depart="80.00" from="25054217#1" to="1205693234#2"/>
    <trip id="425" depart="80.00" from="357850162" to="25042897"/>
    <trip id="426" depart="81.00" from="-25046412#4" to="24405490#2"/>
    <trip id="427" depart="81.00" from="-25044938" to="895216913#1"/>
    <trip id="429" depart="81.00" from="-334559786" to="-31896236#0"/>
    <trip id="430" depart="81.00" from="376545745#0" to="-895462375#0"/>
    <trip id="431" depart="82.00" from="376543466#2" to="-334561891#0"/>
    <trip id="432" depart="82.00" from="-24699019#0" to="1201612998"/>
    <trip id="433" depart="82.00" from="24683535#4" to="-854227939"/>
    <trip id="434" depart="82.00" from="422425537#1" to="754427029#1"/>
    <trip id="435" depart="82.00" from="25111487#0" to="24699019#0"/>
    <trip id="436" depart="82.00" from="-668297056" to="376539201"/>
    <trip id="437" depart="83.00" from="302965728#5" to="-1094541188#1"/>
    <trip id="438" depart="83.00" from="-25046813#0" to="107938391#2"/>
    <trip id="439" depart="83.00" from="-376543464#0" to="-25054223#1"/>
    <trip id="440" depart="83.00" from="-24699017#0" to="-679902284#0"/>
    <trip id="441" depart="84.00" from="25043183#1" to="535554959#0"/>
    <trip id="442" depart="84.00" from="-1205667519" to="805508870#3"/>
    <trip id="444" depart="84.00" from="895216932#5" to="98246944#17"/>
    <trip id="445" depart="84.00" from="-1168305905#2" to="1216978711"/>
    <trip id="446" depart="85.00" from="1094316873" to="24683555"/>
    <trip id="448" depart="85.00" from="-25111486" to="1190782924"/>
    <trip id="450" depart="85.00" from="-1201829326#0" to="-1094261605"/>
    <trip id="451" depart="86.00" from="-24791353" to="334560315#1"/>
    <trip id="452" depart="86.00" from="24791338#0" to="1168541557"/>
    <trip id="453" depart="86.00" from="-25045242#0" to="-24683560#8"/>
    <trip id="454" depart="86.00" from="-1168542197" to="-293255730#0"/>
    <trip id="455" depart="87.00" from="-895216896#0" to="-431827304#0"/>
    <trip id="456" depart="87.00" from="-305589151#1" to="25044575"/>
    <trip id="458" depart="87.00" from="1168305904" to="-432248099#4"/>
    <trip id="459" depart="87.00" from="-1190782925" to="-31896236#1"/>
    <trip id="460" depart="87.00" from="-25054224#2" to="1094268120"/>